
interFoam has been superseded and replaced by the more general
incompressibleVoF solver module executed by the foamRun application:

    foamRun -solver incompressibleVoF

/*---------------------------------------------------------------------------*\
  =========                 |
  \\      /  F ield         | OpenFOAM: The Open Source CFD Toolbox
   \\    /   O peration     | Website:  https://openfoam.org
    \\  /    A nd           | Version:  12
     \\/     M anipulation  |
\*---------------------------------------------------------------------------*/
Build  : 12-86e126a7bc4d
Exec   : foamRun -solver incompressibleVoF
Date   : Mar 06 2025
Time   : 23:50:32
Host   : "yyz-MacBookAir-Ubuntu"
PID    : 35691
I/O    : uncollated
Case   : /home/yyz/OpenFOAM/yyz-12/run/damBreak
nProcs : 1
sigFpe : Enabling floating point exception trapping (FOAM_SIGFPE).
fileModificationChecking : Monitoring run-time modified files using timeStampMaster (fileModificationSkew 10)
allowSystemOperations : Allowing user-supplied system call operations

// * * * * * * * * * * * * * * * * * * * * * * * * * * * * * * * * * * * * * //
Create time

Create mesh for time = 0

Selecting solver incompressibleVoF
Selecting viscosity model constant
Selecting viscosity model constant
No MRF models present

Courant Number mean: 0 max: 0
Interface Courant Number mean: 0 max: 0
Selecting turbulence model type RAS
Selecting RAS turbulence model kEpsilon
RAS
{
    model           kEpsilon;
    turbulence      on;
    printCoeffs     on;
    Cmu             0.09;
    C1              1.44;
    C2              1.92;
    C3              0;
    sigmak          1;
    sigmaEps        1.3;
}

DICPCG:  Solving for pcorr, Initial residual = 0, Final residual = 0, No Iterations 0
Creating fvModels from "constant/fvModels"

Selecting finite volume model type VoFTurbulenceDamping
    Name: turbulenceDamping

PIMPLE: No convergence criteria found


PIMPLE: Operating solver in transient mode with 1 outer corrector
PIMPLE: Operating solver in PISO mode



Starting time loop

Courant Number mean: 0 max: 0
Interface Courant Number mean: 0 max: 0
deltaT = 0.00119048
Time = 0.00119048s

smoothSolver:  Solving for alpha.water, Initial residual = 0, Final residual = 0, No Iterations 0
Phase-1 volume fraction = 0.198834  Min(alpha.water) = 0  Max(alpha.water) = 1
MULES: Correcting alpha.water
MULES: Correcting alpha.water
Phase-1 volume fraction = 0.198834  Min(alpha.water) = 0  Max(alpha.water) = 1
DICPCG:  Solving for p_rgh, Initial residual = 1, Final residual = 0.031545, No Iterations 7
time step continuity errors : sum local = 0.000560628, global = -6.91716e-05
DICPCG:  Solving for p_rgh, Initial residual = 0.00219503, Final residual = 7.98556e-05, No Iterations 28
time step continuity errors : sum local = 2.14645e-05, global = 5.41297e-07
DICPCG:  Solving for p_rgh, Initial residual = 0.000186681, Final residual = 7.6598e-08, No Iterations 52
time step continuity errors : sum local = 2.53389e-08, global = -1.05568e-09, cumulative = -1.05568e-09
smoothSolver:  Solving for epsilon, Initial residual = 0.928302, Final residual = 2.70832e-07, No Iterations 4
smoothSolver:  Solving for k, Initial residual = 1, Final residual = 1.80964e-07, No Iterations 4
ExecutionTime = 0.109335 s  ClockTime = 0 s

Courant Number mean: 0.000705989 max: 0.00515638
Interface Courant Number mean: 0 max: 0
deltaT = 0.00139456
Time = 0.00258503s

smoothSolver:  Solving for alpha.water, Initial residual = 3.04088e-05, Final residual = 2.3655e-11, No Iterations 1
Phase-1 volume fraction = 0.198834  Min(alpha.water) = 0  Max(alpha.water) = 1
MULES: Correcting alpha.water
MULES: Correcting alpha.water
Phase-1 volume fraction = 0.198834  Min(alpha.water) = -3.27853e-15  Max(alpha.water) = 1
DICPCG:  Solving for p_rgh, Initial residual = 0.000468056, Final residual = 2.17902e-05, No Iterations 5
time step continuity errors : sum local = 3.42633e-05, global = -1.77598e-06
DICPCG:  Solving for p_rgh, Initial residual = 2.76655e-05, Final residual = 1.14568e-06, No Iterations 32
time step continuity errors : sum local = 1.8007e-06, global = -2.6576e-07
DICPCG:  Solving for p_rgh, Initial residual = 4.52181e-06, Final residual = 9.56932e-08, No Iterations 37
time step continuity errors : sum local = 1.50355e-07, global = 3.5836e-08, cumulative = 3.47803e-08
smoothSolver:  Solving for epsilon, Initial residual = 0.835644, Final residual = 4.86378e-07, No Iterations 1
smoothSolver:  Solving for k, Initial residual = 0.104893, Final residual = 3.24081e-07, No Iterations 3
ExecutionTime = 0.123192 s  ClockTime = 0 s

Courant Number mean: 0.00206734 max: 0.0656077
Interface Courant Number mean: 0 max: 0
deltaT = 0.001635
Time = 0.00422003s

smoothSolver:  Solving for alpha.water, Initial residual = 0.000168042, Final residual = 6.15442e-09, No Iterations 1
Phase-1 volume fraction = 0.198834  Min(alpha.water) = 0  Max(alpha.water) = 1
MULES: Correcting alpha.water
MULES: Correcting alpha.water
Phase-1 volume fraction = 0.198834  Min(alpha.water) = -1.89944e-11  Max(alpha.water) = 1
DICPCG:  Solving for p_rgh, Initial residual = 0.00289016, Final residual = 6.25185e-05, No Iterations 2
time step continuity errors : sum local = 0.000117002, global = 1.51885e-07
DICPCG:  Solving for p_rgh, Initial residual = 7.91117e-05, Final residual = 3.44666e-06, No Iterations 29
time step continuity errors : sum local = 6.44798e-06, global = -1.24213e-07
DICPCG:  Solving for p_rgh, Initial residual = 1.20744e-05, Final residual = 9.49106e-08, No Iterations 24
time step continuity errors : sum local = 1.77594e-07, global = 6.89431e-08, cumulative = 1.03723e-07
smoothSolver:  Solving for epsilon, Initial residual = 0.116259, Final residual = 9.44124e-08, No Iterations 2
smoothSolver:  Solving for k, Initial residual = 0.076122, Final residual = 4.43731e-07, No Iterations 3
ExecutionTime = 0.134652 s  ClockTime = 0 s

Courant Number mean: 0.00362012 max: 0.0461782
Interface Courant Number mean: 4.6019e-05 max: 0.0461782
deltaT = 0.0019075
Time = 0.00612753s

smoothSolver:  Solving for alpha.water, Initial residual = 0.00018049, Final residual = 4.25855e-14, No Iterations 2
Phase-1 volume fraction = 0.198834  Min(alpha.water) = 0  Max(alpha.water) = 1
MULES: Correcting alpha.water
MULES: Correcting alpha.water
Phase-1 volume fraction = 0.198834  Min(alpha.water) = -9.2728e-12  Max(alpha.water) = 1
DICPCG:  Solving for p_rgh, Initial residual = 0.00320176, Final residual = 0.00015765, No Iterations 1
time step continuity errors : sum local = 0.000355351, global = 2.63393e-07
DICPCG:  Solving for p_rgh, Initial residual = 0.000160953, Final residual = 7.03173e-06, No Iterations 9
time step continuity errors : sum local = 1.58303e-05, global = -2.30674e-06
DICPCG:  Solving for p_rgh, Initial residual = 1.3868e-05, Final residual = 7.67763e-08, No Iterations 40
time step continuity errors : sum local = 1.72891e-07, global = -1.69589e-08, cumulative = 8.67645e-08
smoothSolver:  Solving for epsilon, Initial residual = 0.567265, Final residual = 1.00289e-07, No Iterations 2
smoothSolver:  Solving for k, Initial residual = 0.0444299, Final residual = 9.19785e-07, No Iterations 3
ExecutionTime = 0.145606 s  ClockTime = 0 s

Courant Number mean: 0.00601001 max: 0.046807
Interface Courant Number mean: 0.000145266 max: 0.0456997
deltaT = 0.00219362
Time = 0.00832115s

smoothSolver:  Solving for alpha.water, Initial residual = 0.000246612, Final residual = 1.98268e-13, No Iterations 2
Phase-1 volume fraction = 0.198834  Min(alpha.water) = 0  Max(alpha.water) = 1
MULES: Correcting alpha.water
MULES: Correcting alpha.water
Phase-1 volume fraction = 0.198834  Min(alpha.water) = -1.49748e-10  Max(alpha.water) = 1
DICPCG:  Solving for p_rgh, Initial residual = 0.0046263, Final residual = 0.000167856, No Iterations 1
time step continuity errors : sum local = 0.000444815, global = 8.25124e-07
DICPCG:  Solving for p_rgh, Initial residual = 0.000172163, Final residual = 7.99089e-06, No Iterations 8
time step continuity errors : sum local = 2.11212e-05, global = -2.17793e-06
DICPCG:  Solving for p_rgh, Initial residual = 1.58378e-05, Final residual = 7.3484e-08, No Iterations 41
time step continuity errors : sum local = 1.94282e-07, global = -2.1172e-08, cumulative = 6.55925e-08
smoothSolver:  Solving for epsilon, Initial residual = 0.133457, Final residual = 5.39861e-07, No Iterations 2
smoothSolver:  Solving for k, Initial residual = 0.0337119, Final residual = 1.55899e-07, No Iterations 4
ExecutionTime = 0.159087 s  ClockTime = 0 s

Courant Number mean: 0.00934224 max: 0.0654884
Interface Courant Number mean: 0.000293417 max: 0.0654884
deltaT = 0.00260493
Time = 0.0109261s

smoothSolver:  Solving for alpha.water, Initial residual = 0.000366663, Final residual = 1.15569e-12, No Iterations 2
Phase-1 volume fraction = 0.198834  Min(alpha.water) = 0  Max(alpha.water) = 1
MULES: Correcting alpha.water
MULES: Correcting alpha.water
Phase-1 volume fraction = 0.198834  Min(alpha.water) = -1.19987e-09  Max(alpha.water) = 1
DICPCG:  Solving for p_rgh, Initial residual = 0.00725131, Final residual = 0.000204619, No Iterations 1
time step continuity errors : sum local = 0.000683899, global = 9.57634e-07
DICPCG:  Solving for p_rgh, Initial residual = 0.000210649, Final residual = 9.61632e-06, No Iterations 8
time step continuity errors : sum local = 3.1993e-05, global = -3.65166e-06
DICPCG:  Solving for p_rgh, Initial residual = 2.03192e-05, Final residual = 9.65694e-08, No Iterations 41
time step continuity errors : sum local = 3.21382e-07, global = -3.67011e-08, cumulative = 2.88914e-08
smoothSolver:  Solving for epsilon, Initial residual = 0.426468, Final residual = 9.81851e-07, No Iterations 2
smoothSolver:  Solving for k, Initial residual = 0.0321876, Final residual = 4.09461e-07, No Iterations 4
ExecutionTime = 0.172033 s  ClockTime = 0 s

Courant Number mean: 0.0145334 max: 0.101934
Interface Courant Number mean: 0.000508203 max: 0.101934
deltaT = 0.00300569
Time = 0.0139318s

smoothSolver:  Solving for alpha.water, Initial residual = 0.000528767, Final residual = 5.37627e-12, No Iterations 2
Phase-1 volume fraction = 0.198834  Min(alpha.water) = 0  Max(alpha.water) = 1
MULES: Correcting alpha.water
MULES: Correcting alpha.water
Phase-1 volume fraction = 0.198834  Min(alpha.water) = -5.20465e-09  Max(alpha.water) = 1
DICPCG:  Solving for p_rgh, Initial residual = 0.0109904, Final residual = 0.000247583, No Iterations 1
time step continuity errors : sum local = 0.00100044, global = 1.49317e-06
DICPCG:  Solving for p_rgh, Initial residual = 0.000255142, Final residual = 1.21956e-05, No Iterations 8
time step continuity errors : sum local = 4.89346e-05, global = -5.65919e-06
DICPCG:  Solving for p_rgh, Initial residual = 2.60081e-05, Final residual = 7.40626e-08, No Iterations 43
time step continuity errors : sum local = 2.97301e-07, global = -5.14309e-08, cumulative = -2.25395e-08
smoothSolver:  Solving for epsilon, Initial residual = 0.115199, Final residual = 2.48964e-07, No Iterations 3
smoothSolver:  Solving for k, Initial residual = 0.0261245, Final residual = 6.5728e-07, No Iterations 4
ExecutionTime = 0.183786 s  ClockTime = 0 s

Courant Number mean: 0.0213519 max: 0.151779
Interface Courant Number mean: 0.000814976 max: 0.151779
deltaT = 0.00360682
Time = 0.0175386s

smoothSolver:  Solving for alpha.water, Initial residual = 0.000779586, Final residual = 2.66636e-11, No Iterations 2
Phase-1 volume fraction = 0.198834  Min(alpha.water) = 0  Max(alpha.water) = 1
MULES: Correcting alpha.water
MULES: Correcting alpha.water
Phase-1 volume fraction = 0.198834  Min(alpha.water) = -3.01566e-08  Max(alpha.water) = 1
DICPCG:  Solving for p_rgh, Initial residual = 0.0169526, Final residual = 0.000298726, No Iterations 1
time step continuity errors : sum local = 0.00157469, global = 2.52463e-06
DICPCG:  Solving for p_rgh, Initial residual = 0.000310108, Final residual = 1.47464e-05, No Iterations 8
time step continuity errors : sum local = 7.68762e-05, global = -9.73397e-06
DICPCG:  Solving for p_rgh, Initial residual = 3.3829e-05, Final residual = 8.08683e-08, No Iterations 45
time step continuity errors : sum local = 4.21816e-07, global = -5.2641e-08, cumulative = -7.51805e-08
smoothSolver:  Solving for epsilon, Initial residual = 0.246235, Final residual = 4.65402e-07, No Iterations 3
smoothSolver:  Solving for k, Initial residual = 0.0292941, Final residual = 3.50813e-07, No Iterations 5
ExecutionTime = 0.195451 s  ClockTime = 0 s

Courant Number mean: 0.0322198 max: 0.230419
Interface Courant Number mean: 0.00135818 max: 0.230419
deltaT = 0.00405768
Time = 0.0215963s

smoothSolver:  Solving for alpha.water, Initial residual = 0.00106929, Final residual = 8.96296e-11, No Iterations 2
Phase-1 volume fraction = 0.198834  Min(alpha.water) = -1.123e-12  Max(alpha.water) = 1
MULES: Correcting alpha.water
MULES: Correcting alpha.water
Phase-1 volume fraction = 0.198834  Min(alpha.water) = -1.12965e-08  Max(alpha.water) = 1
DICPCG:  Solving for p_rgh, Initial residual = 0.0242257, Final residual = 0.000329972, No Iterations 1
time step continuity errors : sum local = 0.00201835, global = 4.01426e-06
DICPCG:  Solving for p_rgh, Initial residual = 0.000345899, Final residual = 1.63957e-05, No Iterations 8
time step continuity errors : sum local = 9.86465e-05, global = -9.05198e-06
DICPCG:  Solving for p_rgh, Initial residual = 4.03422e-05, Final residual = 9.4491e-08, No Iterations 45
time step continuity errors : sum local = 5.68963e-07, global = -8.13913e-08, cumulative = -1.56572e-07
smoothSolver:  Solving for epsilon, Initial residual = 0.130107, Final residual = 8.40935e-07, No Iterations 3
smoothSolver:  Solving for k, Initial residual = 0.020436, Final residual = 4.44511e-07, No Iterations 5
ExecutionTime = 0.209376 s  ClockTime = 0 s

Courant Number mean: 0.0444542 max: 0.29718
Interface Courant Number mean: 0.00213439 max: 0.29718
deltaT = 0.00473396
Time = 0.0263302s

smoothSolver:  Solving for alpha.water, Initial residual = 0.00149755, Final residual = 6.97819e-10, No Iterations 2
Phase-1 volume fraction = 0.198834  Min(alpha.water) = 0  Max(alpha.water) = 1
MULES: Correcting alpha.water
MULES: Correcting alpha.water
Phase-1 volume fraction = 0.198834  Min(alpha.water) = -8.36151e-08  Max(alpha.water) = 1
DICPCG:  Solving for p_rgh, Initial residual = 0.0356867, Final residual = 0.000387278, No Iterations 1
time step continuity errors : sum local = 0.00290274, global = 4.01449e-06
DICPCG:  Solving for p_rgh, Initial residual = 0.000414666, Final residual = 2.04964e-05, No Iterations 8
time step continuity errors : sum local = 0.000149772, global = -1.20131e-05
DICPCG:  Solving for p_rgh, Initial residual = 5.08718e-05, Final residual = 8.97515e-08, No Iterations 44
time step continuity errors : sum local = 6.56577e-07, global = -1.41867e-07, cumulative = -2.98438e-07
smoothSolver:  Solving for epsilon, Initial residual = 0.411128, Final residual = 8.58856e-07, No Iterations 3
smoothSolver:  Solving for k, Initial residual = 0.0269882, Final residual = 3.2973e-07, No Iterations 6
ExecutionTime = 0.223141 s  ClockTime = 0 s

Courant Number mean: 0.0627845 max: 0.369161
Interface Courant Number mean: 0.00332156 max: 0.369161
deltaT = 0.00473396
Time = 0.0310642s

smoothSolver:  Solving for alpha.water, Initial residual = 0.00179615, Final residual = 3.94845e-14, No Iterations 3
Phase-1 volume fraction = 0.198834  Min(alpha.water) = 0  Max(alpha.water) = 1
MULES: Correcting alpha.water
MULES: Correcting alpha.water
Phase-1 volume fraction = 0.198834  Min(alpha.water) = -1.10781e-08  Max(alpha.water) = 1
DICPCG:  Solving for p_rgh, Initial residual = 0.0445549, Final residual = 0.000405388, No Iterations 1
time step continuity errors : sum local = 0.00282331, global = 3.64054e-06
DICPCG:  Solving for p_rgh, Initial residual = 0.000441524, Final residual = 1.82513e-05, No Iterations 9
time step continuity errors : sum local = 0.000123041, global = -1.27527e-05
DICPCG:  Solving for p_rgh, Initial residual = 5.24645e-05, Final residual = 8.51587e-08, No Iterations 27
time step continuity errors : sum local = 5.7523e-07, global = 4.48512e-08, cumulative = -2.53587e-07
smoothSolver:  Solving for epsilon, Initial residual = 0.211118, Final residual = 2.7691e-07, No Iterations 4
smoothSolver:  Solving for k, Initial residual = 0.0134781, Final residual = 5.31229e-07, No Iterations 5
ExecutionTime = 0.234366 s  ClockTime = 0 s

Courant Number mean: 0.0736067 max: 0.40805
Interface Courant Number mean: 0.00400653 max: 0.407815
deltaT = 0.00473396
Time = 0.0357981s

smoothSolver:  Solving for alpha.water, Initial residual = 0.00208622, Final residual = 6.55789e-14, No Iterations 3
Phase-1 volume fraction = 0.198834  Min(alpha.water) = 0  Max(alpha.water) = 1
MULES: Correcting alpha.water
MULES: Correcting alpha.water
Phase-1 volume fraction = 0.198834  Min(alpha.water) = -9.22146e-09  Max(alpha.water) = 1
DICPCG:  Solving for p_rgh, Initial residual = 0.0542893, Final residual = 0.000436709, No Iterations 1
time step continuity errors : sum local = 0.00280648, global = 3.93193e-06
DICPCG:  Solving for p_rgh, Initial residual = 0.000482783, Final residual = 1.99974e-05, No Iterations 9
time step continuity errors : sum local = 0.000123455, global = -1.41237e-05
DICPCG:  Solving for p_rgh, Initial residual = 5.71111e-05, Final residual = 8.23648e-08, No Iterations 43
time step continuity errors : sum local = 5.09808e-07, global = -5.13507e-08, cumulative = -3.04938e-07
smoothSolver:  Solving for epsilon, Initial residual = 0.900364, Final residual = 8.04676e-07, No Iterations 2
smoothSolver:  Solving for k, Initial residual = 0.0237984, Final residual = 2.71854e-07, No Iterations 6
ExecutionTime = 0.245314 s  ClockTime = 0 s

Courant Number mean: 0.0842659 max: 0.473322
Interface Courant Number mean: 0.00480974 max: 0.473322
deltaT = 0.00473396
Time = 0.0405321s

smoothSolver:  Solving for alpha.water, Initial residual = 0.0023696, Final residual = 3.32489e-10, No Iterations 3
Phase-1 volume fraction = 0.198834  Min(alpha.water) = 0  Max(alpha.water) = 1
MULES: Correcting alpha.water
MULES: Correcting alpha.water
Phase-1 volume fraction = 0.198834  Min(alpha.water) = -5.97862e-09  Max(alpha.water) = 1
DICPCG:  Solving for p_rgh, Initial residual = 0.0616109, Final residual = 0.000519106, No Iterations 1
time step continuity errors : sum local = 0.00298334, global = 4.01868e-06
DICPCG:  Solving for p_rgh, Initial residual = 0.00057815, Final residual = 2.38112e-05, No Iterations 9
time step continuity errors : sum local = 0.000131061, global = -1.49525e-05
DICPCG:  Solving for p_rgh, Initial residual = 6.85595e-05, Final residual = 8.13119e-08, No Iterations 43
time step continuity errors : sum local = 4.49102e-07, global = -1.65492e-08, cumulative = -3.21487e-07
smoothSolver:  Solving for epsilon, Initial residual = 0.248052, Final residual = 3.09385e-07, No Iterations 4
smoothSolver:  Solving for k, Initial residual = 0.0098039, Final residual = 3.12247e-07, No Iterations 5
ExecutionTime = 0.257617 s  ClockTime = 0 s

Courant Number mean: 0.0947998 max: 0.519121
Interface Courant Number mean: 0.00640334 max: 0.519121
deltaT = 0.00473396
Time = 0.045266s

smoothSolver:  Solving for alpha.water, Initial residual = 0.0026458, Final residual = 1.52557e-09, No Iterations 3
Phase-1 volume fraction = 0.198834  Min(alpha.water) = 0  Max(alpha.water) = 1
MULES: Correcting alpha.water
MULES: Correcting alpha.water
Phase-1 volume fraction = 0.198834  Min(alpha.water) = -7.66065e-09  Max(alpha.water) = 1
DICPCG:  Solving for p_rgh, Initial residual = 0.0691642, Final residual = 0.000614521, No Iterations 1
time step continuity errors : sum local = 0.00328007, global = 4.1972e-06
DICPCG:  Solving for p_rgh, Initial residual = 0.000692367, Final residual = 2.87848e-05, No Iterations 9
time step continuity errors : sum local = 0.000146234, global = -1.58151e-05
DICPCG:  Solving for p_rgh, Initial residual = 8.30206e-05, Final residual = 9.41295e-08, No Iterations 43
time step continuity errors : sum local = 4.80342e-07, global = 2.09714e-09, cumulative = -3.1939e-07
smoothSolver:  Solving for epsilon, Initial residual = 0.827175, Final residual = 3.79416e-07, No Iterations 2
smoothSolver:  Solving for k, Initial residual = 0.0236057, Final residual = 8.72898e-07, No Iterations 5
ExecutionTime = 0.268683 s  ClockTime = 0 s

Courant Number mean: 0.105231 max: 0.565168
Interface Courant Number mean: 0.00742963 max: 0.565168
deltaT = 0.00473396
Time = 0.05s

smoothSolver:  Solving for alpha.water, Initial residual = 0.00291649, Final residual = 3.40698e-09, No Iterations 3
Phase-1 volume fraction = 0.198834  Min(alpha.water) = 0  Max(alpha.water) = 1
MULES: Correcting alpha.water
MULES: Correcting alpha.water
Phase-1 volume fraction = 0.198834  Min(alpha.water) = -8.31407e-08  Max(alpha.water) = 1
DICPCG:  Solving for p_rgh, Initial residual = 0.0709855, Final residual = 0.0007897, No Iterations 1
time step continuity errors : sum local = 0.00375692, global = 4.25694e-06
DICPCG:  Solving for p_rgh, Initial residual = 0.000884266, Final residual = 4.36362e-05, No Iterations 8
time step continuity errors : sum local = 0.000197796, global = -1.21074e-05
DICPCG:  Solving for p_rgh, Initial residual = 0.000116678, Final residual = 8.58327e-08, No Iterations 44
time step continuity errors : sum local = 3.91011e-07, global = 6.34702e-08, cumulative = -2.5592e-07
smoothSolver:  Solving for epsilon, Initial residual = 0.210562, Final residual = 2.75569e-07, No Iterations 4
smoothSolver:  Solving for k, Initial residual = 0.00809477, Final residual = 2.48784e-07, No Iterations 5
ExecutionTime = 0.295239 s  ClockTime = 0 s

Courant Number mean: 0.11568 max: 0.612611
Interface Courant Number mean: 0.00849481 max: 0.612611
deltaT = 0.00555556
Time = 0.0555556s

smoothSolver:  Solving for alpha.water, Initial residual = 0.00374593, Final residual = 1.02151e-10, No Iterations 4
Phase-1 volume fraction = 0.198834  Min(alpha.water) = 0  Max(alpha.water) = 1
MULES: Correcting alpha.water
MULES: Correcting alpha.water
Phase-1 volume fraction = 0.198834  Min(alpha.water) = -4.42227e-07  Max(alpha.water) = 1.00001
DICPCG:  Solving for p_rgh, Initial residual = 0.0833574, Final residual = 0.00123737, No Iterations 1
time step continuity errors : sum local = 0.00689345, global = 3.17388e-06
DICPCG:  Solving for p_rgh, Initial residual = 0.00141025, Final residual = 6.05371e-05, No Iterations 8
time step continuity errors : sum local = 0.000319014, global = -1.73931e-05
DICPCG:  Solving for p_rgh, Initial residual = 0.000197117, Final residual = 9.55043e-08, No Iterations 49
time step continuity errors : sum local = 5.06499e-07, global = 1.72402e-08, cumulative = -2.3868e-07
smoothSolver:  Solving for epsilon, Initial residual = 0.66353, Final residual = 6.22705e-07, No Iterations 2
smoothSolver:  Solving for k, Initial residual = 0.026034, Final residual = 5.50632e-07, No Iterations 6
ExecutionTime = 0.308746 s  ClockTime = 0 s

Courant Number mean: 0.150083 max: 0.776908
Interface Courant Number mean: 0.0113219 max: 0.776908
deltaT = 0.00634921
Time = 0.0619048s

smoothSolver:  Solving for alpha.water, Initial residual = 0.00473439, Final residual = 7.5941e-10, No Iterations 4
Phase-1 volume fraction = 0.198834  Min(alpha.water) = 0  Max(alpha.water) = 1
MULES: Correcting alpha.water
MULES: Correcting alpha.water
Phase-1 volume fraction = 0.198834  Min(alpha.water) = -1.42694e-06  Max(alpha.water) = 1.00017
DICPCG:  Solving for p_rgh, Initial residual = 0.0817322, Final residual = 0.0021193, No Iterations 1
time step continuity errors : sum local = 0.0129407, global = 3.02016e-06
DICPCG:  Solving for p_rgh, Initial residual = 0.00241243, Final residual = 0.000116968, No Iterations 7
time step continuity errors : sum local = 0.000681182, global = 6.90478e-05
DICPCG:  Solving for p_rgh, Initial residual = 0.000368137, Final residual = 9.3259e-08, No Iterations 51
time step continuity errors : sum local = 5.46981e-07, global = 5.16963e-08, cumulative = -1.86983e-07
smoothSolver:  Solving for epsilon, Initial residual = 0.306148, Final residual = 3.07129e-07, No Iterations 5
smoothSolver:  Solving for k, Initial residual = 0.00623376, Final residual = 6.84549e-07, No Iterations 5
ExecutionTime = 0.321755 s  ClockTime = 0 s

Courant Number mean: 0.190116 max: 0.954051
Interface Courant Number mean: 0.0152451 max: 0.954051
deltaT = 0.00634921
Time = 0.068254s

smoothSolver:  Solving for alpha.water, Initial residual = 0.00523354, Final residual = 2.91518e-09, No Iterations 4
Phase-1 volume fraction = 0.198834  Min(alpha.water) = 0  Max(alpha.water) = 1
MULES: Correcting alpha.water
MULES: Correcting alpha.water
Phase-1 volume fraction = 0.198834  Min(alpha.water) = -1.6078e-06  Max(alpha.water) = 1.00018
DICPCG:  Solving for p_rgh, Initial residual = 0.0575469, Final residual = 0.00235159, No Iterations 1
time step continuity errors : sum local = 0.013898, global = -2.63489e-05
DICPCG:  Solving for p_rgh, Initial residual = 0.0026803, Final residual = 0.000130616, No Iterations 5
time step continuity errors : sum local = 0.000762571, global = 0.000232559
DICPCG:  Solving for p_rgh, Initial residual = 0.000433577, Final residual = 9.08965e-08, No Iterations 51
time step continuity errors : sum local = 5.31774e-07, global = 2.6773e-08, cumulative = -1.6021e-07
smoothSolver:  Solving for epsilon, Initial residual = 0.762829, Final residual = 2.88265e-07, No Iterations 2
smoothSolver:  Solving for k, Initial residual = 0.030832, Final residual = 4.24438e-07, No Iterations 7
ExecutionTime = 0.332592 s  ClockTime = 0 s

Courant Number mean: 0.208223 max: 1.13549
Interface Courant Number mean: 0.0180952 max: 1.00499
deltaT = 0.00529101
Time = 0.073545s

smoothSolver:  Solving for alpha.water, Initial residual = 0.00475075, Final residual = 2.14399e-09, No Iterations 4
Phase-1 volume fraction = 0.198834  Min(alpha.water) = -2.25614e-07  Max(alpha.water) = 1
MULES: Correcting alpha.water
MULES: Correcting alpha.water
Phase-1 volume fraction = 0.198834  Min(alpha.water) = -6.94551e-07  Max(alpha.water) = 1
DICPCG:  Solving for p_rgh, Initial residual = 0.0850347, Final residual = 0.000999983, No Iterations 1
time step continuity errors : sum local = 0.005669, global = -6.63643e-05
DICPCG:  Solving for p_rgh, Initial residual = 0.00118509, Final residual = 5.703e-05, No Iterations 5
time step continuity errors : sum local = 0.00030272, global = 9.26375e-06
DICPCG:  Solving for p_rgh, Initial residual = 0.000183091, Final residual = 9.44388e-08, No Iterations 48
time step continuity errors : sum local = 5.02197e-07, global = 6.46648e-08, cumulative = -9.55456e-08
smoothSolver:  Solving for epsilon, Initial residual = 0.283457, Final residual = 6.81186e-07, No Iterations 4
smoothSolver:  Solving for k, Initial residual = 0.00856487, Final residual = 4.25864e-07, No Iterations 5
ExecutionTime = 0.343818 s  ClockTime = 0 s

Courant Number mean: 0.186081 max: 1.11024
Interface Courant Number mean: 0.0162266 max: 0.89264
deltaT = 0.00440917
Time = 0.0779541s

smoothSolver:  Solving for alpha.water, Initial residual = 0.00424826, Final residual = 8.71605e-10, No Iterations 4
Phase-1 volume fraction = 0.198834  Min(alpha.water) = -1.82794e-07  Max(alpha.water) = 1
MULES: Correcting alpha.water
MULES: Correcting alpha.water
Phase-1 volume fraction = 0.198834  Min(alpha.water) = -1.82794e-07  Max(alpha.water) = 1
DICPCG:  Solving for p_rgh, Initial residual = 0.0776665, Final residual = 0.00108604, No Iterations 1
time step continuity errors : sum local = 0.00431597, global = -2.11177e-06
DICPCG:  Solving for p_rgh, Initial residual = 0.00124285, Final residual = 5.39663e-05, No Iterations 8
time step continuity errors : sum local = 0.000201702, global = 7.93594e-06
DICPCG:  Solving for p_rgh, Initial residual = 0.000167873, Final residual = 9.75041e-08, No Iterations 46
time step continuity errors : sum local = 3.66475e-07, global = -7.18926e-10, cumulative = -9.62645e-08
smoothSolver:  Solving for epsilon, Initial residual = 0.774514, Final residual = 2.39593e-07, No Iterations 2
smoothSolver:  Solving for k, Initial residual = 0.0218008, Final residual = 6.63391e-07, No Iterations 5
ExecutionTime = 0.356737 s  ClockTime = 0 s

Courant Number mean: 0.163758 max: 1.05297
Interface Courant Number mean: 0.0145206 max: 0.788733
deltaT = 0.00367431
Time = 0.0816285s

smoothSolver:  Solving for alpha.water, Initial residual = 0.00375426, Final residual = 3.14109e-10, No Iterations 4
Phase-1 volume fraction = 0.198834  Min(alpha.water) = -1.51496e-07  Max(alpha.water) = 1
MULES: Correcting alpha.water
MULES: Correcting alpha.water
Phase-1 volume fraction = 0.198834  Min(alpha.water) = -2.99277e-07  Max(alpha.water) = 1
DICPCG:  Solving for p_rgh, Initial residual = 0.0536118, Final residual = 0.00132405, No Iterations 1
time step continuity errors : sum local = 0.0035378, global = -4.41082e-06
DICPCG:  Solving for p_rgh, Initial residual = 0.00146027, Final residual = 7.06008e-05, No Iterations 8
time step continuity errors : sum local = 0.000181724, global = -5.62839e-06
DICPCG:  Solving for p_rgh, Initial residual = 0.000181196, Final residual = 9.06197e-08, No Iterations 44
time step continuity errors : sum local = 2.34826e-07, global = -1.48386e-08, cumulative = -1.11103e-07
smoothSolver:  Solving for epsilon, Initial residual = 0.208364, Final residual = 1.62934e-07, No Iterations 4
smoothSolver:  Solving for k, Initial residual = 0.00832976, Final residual = 5.04731e-07, No Iterations 4
ExecutionTime = 0.368608 s  ClockTime = 0 s

Courant Number mean: 0.142596 max: 0.981007
Interface Courant Number mean: 0.0128495 max: 0.681747
deltaT = 0.00367431
Time = 0.0853028s

smoothSolver:  Solving for alpha.water, Initial residual = 0.00394129, Final residual = 3.66435e-10, No Iterations 4
Phase-1 volume fraction = 0.198834  Min(alpha.water) = -1.24562e-07  Max(alpha.water) = 1
MULES: Correcting alpha.water
MULES: Correcting alpha.water
Phase-1 volume fraction = 0.198834  Min(alpha.water) = -4.84453e-07  Max(alpha.water) = 1
DICPCG:  Solving for p_rgh, Initial residual = 0.0452749, Final residual = 0.00184315, No Iterations 1
time step continuity errors : sum local = 0.00474881, global = -4.85633e-09
DICPCG:  Solving for p_rgh, Initial residual = 0.00205359, Final residual = 8.55631e-05, No Iterations 8
time step continuity errors : sum local = 0.000215235, global = 9.34148e-06
DICPCG:  Solving for p_rgh, Initial residual = 0.000243972, Final residual = 8.29305e-08, No Iterations 50
time step continuity errors : sum local = 2.09897e-07, global = 2.00996e-08, cumulative = -9.10035e-08
smoothSolver:  Solving for epsilon, Initial residual = 0.553777, Final residual = 7.61749e-07, No Iterations 2
smoothSolver:  Solving for k, Initial residual = 0.0177437, Final residual = 2.54218e-07, No Iterations 5
ExecutionTime = 0.378465 s  ClockTime = 0 s

Courant Number mean: 0.148789 max: 1.11675
Interface Courant Number mean: 0.0128116 max: 0.698144
deltaT = 0.00293945
Time = 0.0882422s

smoothSolver:  Solving for alpha.water, Initial residual = 0.00330422, Final residual = 9.05743e-09, No Iterations 3
Phase-1 volume fraction = 0.198834  Min(alpha.water) = -1.05533e-07  Max(alpha.water) = 1
MULES: Correcting alpha.water
MULES: Correcting alpha.water
Phase-1 volume fraction = 0.198834  Min(alpha.water) = -1.05533e-07  Max(alpha.water) = 1
DICPCG:  Solving for p_rgh, Initial residual = 0.033712, Final residual = 0.000927535, No Iterations 1
time step continuity errors : sum local = 0.00181328, global = -3.59429e-06
DICPCG:  Solving for p_rgh, Initial residual = 0.00103206, Final residual = 4.76926e-05, No Iterations 9
time step continuity errors : sum local = 9.13321e-05, global = -6.18792e-06
DICPCG:  Solving for p_rgh, Initial residual = 0.000121689, Final residual = 9.7473e-08, No Iterations 42
time step continuity errors : sum local = 1.87677e-07, global = -2.03207e-09, cumulative = -9.30355e-08
smoothSolver:  Solving for epsilon, Initial residual = 0.161145, Final residual = 6.37714e-07, No Iterations 3
smoothSolver:  Solving for k, Initial residual = 0.00874415, Final residual = 2.2799e-07, No Iterations 4
ExecutionTime = 0.390593 s  ClockTime = 0 s

Courant Number mean: 0.122991 max: 1.01082
Interface Courant Number mean: 0.0102754 max: 0.563453
deltaT = 0.00235156
Time = 0.0905938s

smoothSolver:  Solving for alpha.water, Initial residual = 0.00272717, Final residual = 2.7751e-09, No Iterations 3
Phase-1 volume fraction = 0.198834  Min(alpha.water) = -9.17946e-08  Max(alpha.water) = 1
MULES: Correcting alpha.water
MULES: Correcting alpha.water
Phase-1 volume fraction = 0.198834  Min(alpha.water) = -9.17696e-08  Max(alpha.water) = 1
DICPCG:  Solving for p_rgh, Initial residual = 0.0491677, Final residual = 0.000505286, No Iterations 1
time step continuity errors : sum local = 0.000790216, global = 2.83732e-07
DICPCG:  Solving for p_rgh, Initial residual = 0.000562775, Final residual = 2.36612e-05, No Iterations 10
time step continuity errors : sum local = 3.5498e-05, global = -3.13479e-06
DICPCG:  Solving for p_rgh, Initial residual = 6.23778e-05, Final residual = 9.23065e-08, No Iterations 44
time step continuity errors : sum local = 1.39178e-07, global = -7.44161e-09, cumulative = -1.00477e-07
smoothSolver:  Solving for epsilon, Initial residual = 0.387724, Final residual = 6.03443e-07, No Iterations 2
smoothSolver:  Solving for k, Initial residual = 0.0115911, Final residual = 9.93319e-07, No Iterations 3
ExecutionTime = 0.401961 s  ClockTime = 0 s

Courant Number mean: 0.100883 max: 0.884486
Interface Courant Number mean: 0.00813536 max: 0.460005
deltaT = 0.00235156
Time = 0.0929453s

smoothSolver:  Solving for alpha.water, Initial residual = 0.00281007, Final residual = 2.82123e-09, No Iterations 3
Phase-1 volume fraction = 0.198834  Min(alpha.water) = -7.95074e-08  Max(alpha.water) = 1
MULES: Correcting alpha.water
MULES: Correcting alpha.water
Phase-1 volume fraction = 0.198834  Min(alpha.water) = -7.94708e-08  Max(alpha.water) = 1
DICPCG:  Solving for p_rgh, Initial residual = 0.0462933, Final residual = 0.000633423, No Iterations 1
time step continuity errors : sum local = 0.000915172, global = 8.64469e-07
DICPCG:  Solving for p_rgh, Initial residual = 0.000697742, Final residual = 2.8428e-05, No Iterations 10
time step continuity errors : sum local = 3.95491e-05, global = -3.66218e-06
DICPCG:  Solving for p_rgh, Initial residual = 7.45566e-05, Final residual = 7.52754e-08, No Iterations 47
time step continuity errors : sum local = 1.05286e-07, global = -1.66053e-09, cumulative = -1.02138e-07
smoothSolver:  Solving for epsilon, Initial residual = 0.0950819, Final residual = 2.52429e-07, No Iterations 3
smoothSolver:  Solving for k, Initial residual = 0.00836395, Final residual = 7.52208e-07, No Iterations 3
ExecutionTime = 0.411628 s  ClockTime = 0 s

Courant Number mean: 0.103403 max: 0.956719
Interface Courant Number mean: 0.00881707 max: 0.512761
deltaT = 0.00235156
Time = 0.0952969s

smoothSolver:  Solving for alpha.water, Initial residual = 0.00290094, Final residual = 2.98315e-09, No Iterations 3
Phase-1 volume fraction = 0.198834  Min(alpha.water) = -6.85692e-08  Max(alpha.water) = 1
MULES: Correcting alpha.water
MULES: Correcting alpha.water
Phase-1 volume fraction = 0.198834  Min(alpha.water) = -6.85185e-08  Max(alpha.water) = 1
DICPCG:  Solving for p_rgh, Initial residual = 0.0412623, Final residual = 0.000817154, No Iterations 1
time step continuity errors : sum local = 0.00109961, global = 1.01456e-06
DICPCG:  Solving for p_rgh, Initial residual = 0.000893878, Final residual = 4.28043e-05, No Iterations 9
time step continuity errors : sum local = 5.58247e-05, global = -4.74745e-06
DICPCG:  Solving for p_rgh, Initial residual = 9.74171e-05, Final residual = 9.53167e-08, No Iterations 44
time step continuity errors : sum local = 1.24973e-07, global = -5.6398e-09, cumulative = -1.07777e-07
smoothSolver:  Solving for epsilon, Initial residual = 0.17839, Final residual = 1.18338e-07, No Iterations 3
smoothSolver:  Solving for k, Initial residual = 0.0112851, Final residual = 1.21973e-07, No Iterations 4
ExecutionTime = 0.424126 s  ClockTime = 0 s

Courant Number mean: 0.105972 max: 1.03271
Interface Courant Number mean: 0.00914723 max: 0.516469
deltaT = 0.00156771
Time = 0.0968646s

smoothSolver:  Solving for alpha.water, Initial residual = 0.00199386, Final residual = 3.19652e-10, No Iterations 3
Phase-1 volume fraction = 0.198834  Min(alpha.water) = -6.17872e-08  Max(alpha.water) = 1
MULES: Correcting alpha.water
MULES: Correcting alpha.water
Phase-1 volume fraction = 0.198834  Min(alpha.water) = -6.17764e-08  Max(alpha.water) = 1
DICPCG:  Solving for p_rgh, Initial residual = 0.0266197, Final residual = 0.000838919, No Iterations 1
time step continuity errors : sum local = 0.000544948, global = 3.00755e-07
DICPCG:  Solving for p_rgh, Initial residual = 0.000895285, Final residual = 4.13397e-05, No Iterations 9
time step continuity errors : sum local = 2.63299e-05, global = -1.63821e-06
DICPCG:  Solving for p_rgh, Initial residual = 7.98968e-05, Final residual = 8.94953e-08, No Iterations 42
time step continuity errors : sum local = 5.72369e-08, global = 2.03102e-09, cumulative = -1.05746e-07
smoothSolver:  Solving for epsilon, Initial residual = 0.0635583, Final residual = 3.56641e-08, No Iterations 3
smoothSolver:  Solving for k, Initial residual = 0.00694535, Final residual = 1.244e-07, No Iterations 3
ExecutionTime = 0.435428 s  ClockTime = 0 s

Courant Number mean: 0.0717499 max: 0.716258
Interface Courant Number mean: 0.00588563 max: 0.34621
deltaT = 0.00156771
Time = 0.0984323s

smoothSolver:  Solving for alpha.water, Initial residual = 0.00202898, Final residual = 3.30096e-10, No Iterations 3
Phase-1 volume fraction = 0.198834  Min(alpha.water) = -5.56036e-08  Max(alpha.water) = 1
MULES: Correcting alpha.water
MULES: Correcting alpha.water
Phase-1 volume fraction = 0.198834  Min(alpha.water) = -9.84852e-08  Max(alpha.water) = 1
DICPCG:  Solving for p_rgh, Initial residual = 0.0233672, Final residual = 0.000912641, No Iterations 1
time step continuity errors : sum local = 0.00057631, global = 2.1382e-07
DICPCG:  Solving for p_rgh, Initial residual = 0.000972653, Final residual = 3.8825e-05, No Iterations 9
time step continuity errors : sum local = 2.41377e-05, global = -1.85253e-06
DICPCG:  Solving for p_rgh, Initial residual = 8.23061e-05, Final residual = 7.06171e-08, No Iterations 44
time step continuity errors : sum local = 4.40297e-08, global = 1.98742e-09, cumulative = -1.03759e-07
smoothSolver:  Solving for epsilon, Initial residual = 0.078787, Final residual = 7.85862e-07, No Iterations 2
smoothSolver:  Solving for k, Initial residual = 0.00775481, Final residual = 1.41676e-07, No Iterations 3
ExecutionTime = 0.444872 s  ClockTime = 0 s

Courant Number mean: 0.0729317 max: 0.744787
Interface Courant Number mean: 0.00601115 max: 0.565739
deltaT = 0.00156771
Time = 0.1s

smoothSolver:  Solving for alpha.water, Initial residual = 0.00206182, Final residual = 3.38431e-10, No Iterations 3
Phase-1 volume fraction = 0.198834  Min(alpha.water) = -5.00392e-08  Max(alpha.water) = 1
MULES: Correcting alpha.water
MULES: Correcting alpha.water
Phase-1 volume fraction = 0.198834  Min(alpha.water) = -4.15835e-07  Max(alpha.water) = 1
DICPCG:  Solving for p_rgh, Initial residual = 0.023138, Final residual = 0.000908835, No Iterations 1
time step continuity errors : sum local = 0.000580229, global = 3.94304e-07
DICPCG:  Solving for p_rgh, Initial residual = 0.000967299, Final residual = 4.61081e-05, No Iterations 6
time step continuity errors : sum local = 2.90594e-05, global = 9.50226e-06
DICPCG:  Solving for p_rgh, Initial residual = 8.66648e-05, Final residual = 8.88469e-08, No Iterations 47
time step continuity errors : sum local = 5.60595e-08, global = 4.51182e-09, cumulative = -9.92472e-08
smoothSolver:  Solving for epsilon, Initial residual = 0.0454404, Final residual = 4.03671e-08, No Iterations 3
smoothSolver:  Solving for k, Initial residual = 0.00733974, Final residual = 1.36971e-07, No Iterations 3
ExecutionTime = 0.47349 s  ClockTime = 0 s

Courant Number mean: 0.074121 max: 0.774204
Interface Courant Number mean: 0.00582855 max: 0.566711
deltaT = 0.00185185
Time = 0.101852s

smoothSolver:  Solving for alpha.water, Initial residual = 0.00248528, Final residual = 9.32866e-10, No Iterations 3
Phase-1 volume fraction = 0.198834  Min(alpha.water) = -4.45766e-08  Max(alpha.water) = 1
MULES: Correcting alpha.water
MULES: Correcting alpha.water
Phase-1 volume fraction = 0.198834  Min(alpha.water) = -1.11348e-06  Max(alpha.water) = 1
DICPCG:  Solving for p_rgh, Initial residual = 0.0267769, Final residual = 0.000748705, No Iterations 1
time step continuity errors : sum local = 0.000684136, global = -2.08866e-06
DICPCG:  Solving for p_rgh, Initial residual = 0.000817904, Final residual = 3.89559e-05, No Iterations 5
time step continuity errors : sum local = 3.49873e-05, global = 5.52859e-06
DICPCG:  Solving for p_rgh, Initial residual = 8.3904e-05, Final residual = 7.61315e-08, No Iterations 48
time step continuity errors : sum local = 6.84081e-08, global = 5.96623e-09, cumulative = -9.3281e-08
smoothSolver:  Solving for epsilon, Initial residual = 0.0408966, Final residual = 9.60328e-08, No Iterations 3
smoothSolver:  Solving for k, Initial residual = 0.00909055, Final residual = 3.49528e-07, No Iterations 3
ExecutionTime = 0.484633 s  ClockTime = 0 s

Courant Number mean: 0.0891788 max: 0.949686
Interface Courant Number mean: 0.00769807 max: 0.778431
deltaT = 0.00192593
Time = 0.103778s

smoothSolver:  Solving for alpha.water, Initial residual = 0.00263146, Final residual = 1.31601e-09, No Iterations 3
Phase-1 volume fraction = 0.198834  Min(alpha.water) = -3.94526e-08  Max(alpha.water) = 1
MULES: Correcting alpha.water
MULES: Correcting alpha.water
Phase-1 volume fraction = 0.198834  Min(alpha.water) = -1.68501e-06  Max(alpha.water) = 1
DICPCG:  Solving for p_rgh, Initial residual = 0.0446314, Final residual = 0.000428799, No Iterations 1
time step continuity errors : sum local = 0.000493704, global = -1.25697e-06
DICPCG:  Solving for p_rgh, Initial residual = 0.000482463, Final residual = 2.08307e-05, No Iterations 10
time step continuity errors : sum local = 2.30609e-05, global = -2.39349e-06
DICPCG:  Solving for p_rgh, Initial residual = 4.94722e-05, Final residual = 8.62389e-08, No Iterations 42
time step continuity errors : sum local = 9.58105e-08, global = -1.20258e-08, cumulative = -1.05307e-07
smoothSolver:  Solving for epsilon, Initial residual = 0.0432556, Final residual = 1.42206e-07, No Iterations 3
smoothSolver:  Solving for k, Initial residual = 0.00901436, Final residual = 4.16469e-07, No Iterations 3
ExecutionTime = 0.495311 s  ClockTime = 0 s

Courant Number mean: 0.0945001 max: 1.01643
Interface Courant Number mean: 0.00837374 max: 0.890515
deltaT = 0.00184889
Time = 0.105627s

smoothSolver:  Solving for alpha.water, Initial residual = 0.00257229, Final residual = 1.17665e-09, No Iterations 3
Phase-1 volume fraction = 0.198834  Min(alpha.water) = -3.50983e-08  Max(alpha.water) = 1
MULES: Correcting alpha.water
MULES: Correcting alpha.water
Phase-1 volume fraction = 0.198834  Min(alpha.water) = -1.92076e-06  Max(alpha.water) = 1.00001
DICPCG:  Solving for p_rgh, Initial residual = 0.0411758, Final residual = 0.000495639, No Iterations 1
time step continuity errors : sum local = 0.000492605, global = 5.71325e-07
DICPCG:  Solving for p_rgh, Initial residual = 0.000547967, Final residual = 2.66834e-05, No Iterations 9
time step continuity errors : sum local = 2.56037e-05, global = -6.30652e-07
DICPCG:  Solving for p_rgh, Initial residual = 5.5673e-05, Final residual = 8.03539e-08, No Iterations 42
time step continuity errors : sum local = 7.74265e-08, global = -6.15525e-09, cumulative = -1.11462e-07
smoothSolver:  Solving for epsilon, Initial residual = 0.0291935, Final residual = 1.10137e-07, No Iterations 3
smoothSolver:  Solving for k, Initial residual = 0.00932428, Final residual = 3.66449e-07, No Iterations 3
ExecutionTime = 0.507419 s  ClockTime = 0 s

Courant Number mean: 0.0923005 max: 0.995322
Interface Courant Number mean: 0.00803158 max: 0.850503
deltaT = 0.00184889
Time = 0.107476s

smoothSolver:  Solving for alpha.water, Initial residual = 0.00262643, Final residual = 1.28362e-09, No Iterations 3
Phase-1 volume fraction = 0.198834  Min(alpha.water) = -3.46105e-08  Max(alpha.water) = 1
MULES: Correcting alpha.water
MULES: Correcting alpha.water
Phase-1 volume fraction = 0.198834  Min(alpha.water) = -1.7915e-06  Max(alpha.water) = 1.00001
DICPCG:  Solving for p_rgh, Initial residual = 0.0380777, Final residual = 0.000609972, No Iterations 1
time step continuity errors : sum local = 0.000566015, global = 1.82364e-07
DICPCG:  Solving for p_rgh, Initial residual = 0.000670139, Final residual = 3.30205e-05, No Iterations 9
time step continuity errors : sum local = 2.96891e-05, global = -1.69446e-06
DICPCG:  Solving for p_rgh, Initial residual = 6.91567e-05, Final residual = 9.25961e-08, No Iterations 42
time step continuity errors : sum local = 8.36135e-08, global = -6.19442e-09, cumulative = -1.17656e-07
smoothSolver:  Solving for epsilon, Initial residual = 0.0327108, Final residual = 1.28158e-07, No Iterations 3
smoothSolver:  Solving for k, Initial residual = 0.0090614, Final residual = 3.60377e-07, No Iterations 3
ExecutionTime = 0.519015 s  ClockTime = 0 s

Courant Number mean: 0.0939065 max: 1.01313
Interface Courant Number mean: 0.00811882 max: 0.855836
deltaT = 0.00177185
Time = 0.109247s

smoothSolver:  Solving for alpha.water, Initial residual = 0.00257922, Final residual = 1.06547e-09, No Iterations 3
Phase-1 volume fraction = 0.198834  Min(alpha.water) = -3.37866e-08  Max(alpha.water) = 1
MULES: Correcting alpha.water
MULES: Correcting alpha.water
Phase-1 volume fraction = 0.198834  Min(alpha.water) = -5.4112e-07  Max(alpha.water) = 1.00001
DICPCG:  Solving for p_rgh, Initial residual = 0.0324153, Final residual = 0.000752838, No Iterations 1
time step continuity errors : sum local = 0.000611817, global = 3.71194e-07
DICPCG:  Solving for p_rgh, Initial residual = 0.000818197, Final residual = 3.3699e-05, No Iterations 10
time step continuity errors : sum local = 2.66688e-05, global = -3.61637e-06
DICPCG:  Solving for p_rgh, Initial residual = 7.71892e-05, Final residual = 9.5119e-08, No Iterations 45
time step continuity errors : sum local = 7.56412e-08, global = -2.55266e-09, cumulative = -1.20209e-07
smoothSolver:  Solving for epsilon, Initial residual = 0.0283434, Final residual = 1.00591e-07, No Iterations 3
smoothSolver:  Solving for k, Initial residual = 0.00924952, Final residual = 3.09215e-07, No Iterations 3
ExecutionTime = 0.528484 s  ClockTime = 0 s

Courant Number mean: 0.091534 max: 0.986304
Interface Courant Number mean: 0.00817599 max: 0.830644
deltaT = 0.00177185
Time = 0.111019s

smoothSolver:  Solving for alpha.water, Initial residual = 0.00262539, Final residual = 1.18402e-09, No Iterations 3
Phase-1 volume fraction = 0.198834  Min(alpha.water) = -3.26771e-08  Max(alpha.water) = 1
MULES: Correcting alpha.water
MULES: Correcting alpha.water
Phase-1 volume fraction = 0.198834  Min(alpha.water) = -3.26771e-08  Max(alpha.water) = 1.00002
DICPCG:  Solving for p_rgh, Initial residual = 0.0311363, Final residual = 0.0010442, No Iterations 1
time step continuity errors : sum local = 0.000821107, global = 8.51569e-07
DICPCG:  Solving for p_rgh, Initial residual = 0.00113309, Final residual = 5.38255e-05, No Iterations 9
time step continuity errors : sum local = 4.13252e-05, global = -7.18134e-07
DICPCG:  Solving for p_rgh, Initial residual = 0.000114908, Final residual = 6.76341e-08, No Iterations 44
time step continuity errors : sum local = 5.21474e-08, global = 2.35443e-09, cumulative = -1.17855e-07
smoothSolver:  Solving for epsilon, Initial residual = 0.0368833, Final residual = 1.15699e-07, No Iterations 3
smoothSolver:  Solving for k, Initial residual = 0.00911686, Final residual = 3.05544e-07, No Iterations 3
ExecutionTime = 0.541089 s  ClockTime = 0 s

Courant Number mean: 0.0931559 max: 1.00335
Interface Courant Number mean: 0.0079299 max: 0.846784
deltaT = 0.00169481
Time = 0.112714s

smoothSolver:  Solving for alpha.water, Initial residual = 0.00255387, Final residual = 1.02371e-09, No Iterations 3
Phase-1 volume fraction = 0.198834  Min(alpha.water) = -3.14081e-08  Max(alpha.water) = 1
MULES: Correcting alpha.water
MULES: Correcting alpha.water
Phase-1 volume fraction = 0.198834  Min(alpha.water) = -5.77023e-07  Max(alpha.water) = 1.00001
DICPCG:  Solving for p_rgh, Initial residual = 0.0286591, Final residual = 0.00102856, No Iterations 1
time step continuity errors : sum local = 0.000743063, global = 2.71105e-07
DICPCG:  Solving for p_rgh, Initial residual = 0.00111359, Final residual = 5.14483e-05, No Iterations 6
time step continuity errors : sum local = 3.63912e-05, global = 9.35397e-06
DICPCG:  Solving for p_rgh, Initial residual = 0.00010936, Final residual = 7.59447e-08, No Iterations 48
time step continuity errors : sum local = 5.38083e-08, global = 3.33195e-09, cumulative = -1.14523e-07
smoothSolver:  Solving for epsilon, Initial residual = 0.0309974, Final residual = 9.09297e-08, No Iterations 3
smoothSolver:  Solving for k, Initial residual = 0.0093044, Final residual = 2.56225e-07, No Iterations 3
ExecutionTime = 0.552297 s  ClockTime = 0 s

Courant Number mean: 0.0905624 max: 0.977708
Interface Courant Number mean: 0.0076975 max: 0.828519
deltaT = 0.00169481
Time = 0.114409s

smoothSolver:  Solving for alpha.water, Initial residual = 0.00258326, Final residual = 1.0966e-09, No Iterations 3
Phase-1 volume fraction = 0.198834  Min(alpha.water) = -2.99807e-08  Max(alpha.water) = 1
MULES: Correcting alpha.water
MULES: Correcting alpha.water
Phase-1 volume fraction = 0.198834  Min(alpha.water) = -1.01058e-06  Max(alpha.water) = 1.00004
DICPCG:  Solving for p_rgh, Initial residual = 0.0260358, Final residual = 0.000920871, No Iterations 1
time step continuity errors : sum local = 0.000673866, global = -1.8698e-06
DICPCG:  Solving for p_rgh, Initial residual = 0.00100265, Final residual = 4.11244e-05, No Iterations 6
time step continuity errors : sum local = 2.96512e-05, global = 6.97763e-06
DICPCG:  Solving for p_rgh, Initial residual = 9.66639e-05, Final residual = 6.88074e-08, No Iterations 48
time step continuity errors : sum local = 4.96748e-08, global = 1.51658e-09, cumulative = -1.13006e-07
smoothSolver:  Solving for epsilon, Initial residual = 0.038151, Final residual = 1.00224e-07, No Iterations 3
smoothSolver:  Solving for k, Initial residual = 0.00927615, Final residual = 2.54441e-07, No Iterations 3
ExecutionTime = 0.561762 s  ClockTime = 0 s

Courant Number mean: 0.0919812 max: 1.0001
Interface Courant Number mean: 0.00732553 max: 0.851025
deltaT = 0.00169481
Time = 0.116104s

smoothSolver:  Solving for alpha.water, Initial residual = 0.00263523, Final residual = 1.14268e-09, No Iterations 3
Phase-1 volume fraction = 0.198834  Min(alpha.water) = -2.84371e-08  Max(alpha.water) = 1
MULES: Correcting alpha.water
MULES: Correcting alpha.water
Phase-1 volume fraction = 0.198834  Min(alpha.water) = -1.33845e-06  Max(alpha.water) = 1.00001
DICPCG:  Solving for p_rgh, Initial residual = 0.0379282, Final residual = 0.000517103, No Iterations 1
time step continuity errors : sum local = 0.000447503, global = -1.32312e-06
DICPCG:  Solving for p_rgh, Initial residual = 0.000581862, Final residual = 2.74977e-05, No Iterations 6
time step continuity errors : sum local = 2.30273e-05, global = 3.61664e-06
DICPCG:  Solving for p_rgh, Initial residual = 6.14095e-05, Final residual = 8.96899e-08, No Iterations 44
time step continuity errors : sum local = 7.52072e-08, global = -3.16379e-09, cumulative = -1.1617e-07
smoothSolver:  Solving for epsilon, Initial residual = 0.0271448, Final residual = 9.84238e-08, No Iterations 3
smoothSolver:  Solving for k, Initial residual = 0.00969847, Final residual = 2.63838e-07, No Iterations 3
ExecutionTime = 0.574104 s  ClockTime = 0 s

Courant Number mean: 0.0933559 max: 1.02769
Interface Courant Number mean: 0.00776224 max: 0.876597
deltaT = 0.00161411
Time = 0.117718s

smoothSolver:  Solving for alpha.water, Initial residual = 0.00255561, Final residual = 9.05093e-10, No Iterations 3
Phase-1 volume fraction = 0.198834  Min(alpha.water) = -2.68917e-08  Max(alpha.water) = 1
MULES: Correcting alpha.water
MULES: Correcting alpha.water
Phase-1 volume fraction = 0.198834  Min(alpha.water) = -1.49409e-06  Max(alpha.water) = 1.00001
DICPCG:  Solving for p_rgh, Initial residual = 0.0392532, Final residual = 0.000450726, No Iterations 1
time step continuity errors : sum local = 0.000355782, global = -5.95533e-07
DICPCG:  Solving for p_rgh, Initial residual = 0.000507476, Final residual = 2.28048e-05, No Iterations 10
time step continuity errors : sum local = 1.73796e-05, global = -1.22313e-06
DICPCG:  Solving for p_rgh, Initial residual = 5.49568e-05, Final residual = 9.76843e-08, No Iterations 38
time step continuity errors : sum local = 7.47394e-08, global = 6.42828e-10, cumulative = -1.15527e-07
smoothSolver:  Solving for epsilon, Initial residual = 0.0320293, Final residual = 7.86584e-08, No Iterations 3
smoothSolver:  Solving for k, Initial residual = 0.00932658, Final residual = 2.03743e-07, No Iterations 3
ExecutionTime = 0.58538 s  ClockTime = 0 s

Courant Number mean: 0.0901356 max: 1.0074
Interface Courant Number mean: 0.00759741 max: 0.859299
deltaT = 0.00153725
Time = 0.119255s

smoothSolver:  Solving for alpha.water, Initial residual = 0.0024716, Final residual = 7.25501e-10, No Iterations 3
Phase-1 volume fraction = 0.198834  Min(alpha.water) = -2.53771e-08  Max(alpha.water) = 1
MULES: Correcting alpha.water
MULES: Correcting alpha.water
Phase-1 volume fraction = 0.198834  Min(alpha.water) = -1.58687e-06  Max(alpha.water) = 1
DICPCG:  Solving for p_rgh, Initial residual = 0.0352651, Final residual = 0.000523915, No Iterations 1
time step continuity errors : sum local = 0.00035453, global = 2.68345e-07
DICPCG:  Solving for p_rgh, Initial residual = 0.000583671, Final residual = 2.74331e-05, No Iterations 10
time step continuity errors : sum local = 1.80037e-05, global = -1.31858e-06
DICPCG:  Solving for p_rgh, Initial residual = 6.28568e-05, Final residual = 8.77797e-08, No Iterations 40
time step continuity errors : sum local = 5.78782e-08, global = -1.06753e-09, cumulative = -1.16595e-07
smoothSolver:  Solving for epsilon, Initial residual = 0.0229249, Final residual = 5.84362e-08, No Iterations 3
smoothSolver:  Solving for k, Initial residual = 0.00924527, Final residual = 1.61772e-07, No Iterations 3
ExecutionTime = 0.59472 s  ClockTime = 0 s

Courant Number mean: 0.0869521 max: 0.987703
Interface Courant Number mean: 0.00745296 max: 0.841135
deltaT = 0.00153725
Time = 0.120792s

smoothSolver:  Solving for alpha.water, Initial residual = 0.00250993, Final residual = 7.48875e-10, No Iterations 3
Phase-1 volume fraction = 0.198834  Min(alpha.water) = -2.38411e-08  Max(alpha.water) = 1
MULES: Correcting alpha.water
MULES: Correcting alpha.water
Phase-1 volume fraction = 0.198834  Min(alpha.water) = -1.82384e-06  Max(alpha.water) = 1.00001
DICPCG:  Solving for p_rgh, Initial residual = 0.0317331, Final residual = 0.000654471, No Iterations 1
time step continuity errors : sum local = 0.00041758, global = 2.84541e-07
DICPCG:  Solving for p_rgh, Initial residual = 0.000724175, Final residual = 3.40418e-05, No Iterations 10
time step continuity errors : sum local = 2.11378e-05, global = -1.78957e-06
DICPCG:  Solving for p_rgh, Initial residual = 7.76683e-05, Final residual = 7.82228e-08, No Iterations 42
time step continuity errors : sum local = 4.88081e-08, global = -5.60265e-09, cumulative = -1.22197e-07
smoothSolver:  Solving for epsilon, Initial residual = 0.0268674, Final residual = 6.03484e-08, No Iterations 3
smoothSolver:  Solving for k, Initial residual = 0.00932276, Final residual = 1.62028e-07, No Iterations 3
ExecutionTime = 0.607214 s  ClockTime = 0 s

Courant Number mean: 0.0880964 max: 1.01889
Interface Courant Number mean: 0.00738211 max: 0.865155
deltaT = 0.00146038
Time = 0.122253s

smoothSolver:  Solving for alpha.water, Initial residual = 0.00242258, Final residual = 5.63038e-10, No Iterations 3
Phase-1 volume fraction = 0.198834  Min(alpha.water) = -2.23778e-08  Max(alpha.water) = 1
MULES: Correcting alpha.water
MULES: Correcting alpha.water
Phase-1 volume fraction = 0.198834  Min(alpha.water) = -2.00784e-06  Max(alpha.water) = 1.00003
DICPCG:  Solving for p_rgh, Initial residual = 0.0296631, Final residual = 0.000902441, No Iterations 1
time step continuity errors : sum local = 0.000508691, global = 3.53997e-07
DICPCG:  Solving for p_rgh, Initial residual = 0.000986203, Final residual = 3.98715e-05, No Iterations 10
time step continuity errors : sum local = 2.19322e-05, global = -6.02125e-07
DICPCG:  Solving for p_rgh, Initial residual = 9.66807e-05, Final residual = 7.93482e-08, No Iterations 43
time step continuity errors : sum local = 4.38492e-08, global = -3.63944e-09, cumulative = -1.25837e-07
smoothSolver:  Solving for epsilon, Initial residual = 0.0251359, Final residual = 4.48069e-08, No Iterations 3
smoothSolver:  Solving for k, Initial residual = 0.00919061, Final residual = 1.26227e-07, No Iterations 3
ExecutionTime = 0.618699 s  ClockTime = 0 s

Courant Number mean: 0.0847419 max: 0.996447
Interface Courant Number mean: 0.00692665 max: 0.842358
deltaT = 0.00146038
Time = 0.123713s

smoothSolver:  Solving for alpha.water, Initial residual = 0.00245767, Final residual = 5.70785e-10, No Iterations 3
Phase-1 volume fraction = 0.198834  Min(alpha.water) = -2.16803e-08  Max(alpha.water) = 1
MULES: Correcting alpha.water
MULES: Correcting alpha.water
Phase-1 volume fraction = 0.198834  Min(alpha.water) = -1.59364e-07  Max(alpha.water) = 1.00001
DICPCG:  Solving for p_rgh, Initial residual = 0.0269086, Final residual = 0.000935364, No Iterations 1
time step continuity errors : sum local = 0.000511357, global = 1.00886e-07
DICPCG:  Solving for p_rgh, Initial residual = 0.00102283, Final residual = 4.16062e-05, No Iterations 10
time step continuity errors : sum local = 2.22663e-05, global = -1.42452e-06
DICPCG:  Solving for p_rgh, Initial residual = 0.00010373, Final residual = 8.76938e-08, No Iterations 43
time step continuity errors : sum local = 4.71589e-08, global = -2.60644e-09, cumulative = -1.28443e-07
smoothSolver:  Solving for epsilon, Initial residual = 0.0291729, Final residual = 4.55861e-08, No Iterations 3
smoothSolver:  Solving for k, Initial residual = 0.00936953, Final residual = 1.27462e-07, No Iterations 3
ExecutionTime = 0.628281 s  ClockTime = 0 s

Courant Number mean: 0.0858778 max: 1.02585
Interface Courant Number mean: 0.00703933 max: 0.861174
deltaT = 0.00138352
Time = 0.125097s

smoothSolver:  Solving for alpha.water, Initial residual = 0.00235748, Final residual = 4.22965e-10, No Iterations 3
Phase-1 volume fraction = 0.198834  Min(alpha.water) = -2.14384e-08  Max(alpha.water) = 1
MULES: Correcting alpha.water
MULES: Correcting alpha.water
Phase-1 volume fraction = 0.198834  Min(alpha.water) = -2.14384e-08  Max(alpha.water) = 1
DICPCG:  Solving for p_rgh, Initial residual = 0.0246758, Final residual = 0.00087126, No Iterations 1
time step continuity errors : sum local = 0.000430809, global = 2.69365e-07
DICPCG:  Solving for p_rgh, Initial residual = 0.000952282, Final residual = 4.59948e-05, No Iterations 9
time step continuity errors : sum local = 2.23386e-05, global = 2.75488e-06
DICPCG:  Solving for p_rgh, Initial residual = 9.79723e-05, Final residual = 9.4568e-08, No Iterations 45
time step continuity errors : sum local = 4.61402e-08, global = -2.56586e-09, cumulative = -1.31009e-07
smoothSolver:  Solving for epsilon, Initial residual = 0.027713, Final residual = 3.26749e-08, No Iterations 3
smoothSolver:  Solving for k, Initial residual = 0.00922339, Final residual = 9.75671e-08, No Iterations 3
ExecutionTime = 0.640968 s  ClockTime = 0 s

Courant Number mean: 0.0823766 max: 0.99692
Interface Courant Number mean: 0.00660433 max: 0.828626
deltaT = 0.00138352
Time = 0.12648s

smoothSolver:  Solving for alpha.water, Initial residual = 0.00238604, Final residual = 4.39585e-10, No Iterations 3
Phase-1 volume fraction = 0.198834  Min(alpha.water) = -2.1075e-08  Max(alpha.water) = 1
MULES: Correcting alpha.water
MULES: Correcting alpha.water
Phase-1 volume fraction = 0.198834  Min(alpha.water) = -2.1075e-08  Max(alpha.water) = 1.00003
DICPCG:  Solving for p_rgh, Initial residual = 0.0245373, Final residual = 0.000768626, No Iterations 1
time step continuity errors : sum local = 0.000392571, global = -3.52683e-07
DICPCG:  Solving for p_rgh, Initial residual = 0.000845843, Final residual = 3.81954e-05, No Iterations 9
time step continuity errors : sum local = 1.92083e-05, global = 2.35943e-06
DICPCG:  Solving for p_rgh, Initial residual = 8.19398e-05, Final residual = 9.21412e-08, No Iterations 44
time step continuity errors : sum local = 4.65423e-08, global = -6.21316e-09, cumulative = -1.37222e-07
smoothSolver:  Solving for epsilon, Initial residual = 0.0291346, Final residual = 3.24021e-08, No Iterations 3
smoothSolver:  Solving for k, Initial residual = 0.00942972, Final residual = 9.88849e-08, No Iterations 3
ExecutionTime = 0.65239 s  ClockTime = 0 s

Courant Number mean: 0.0833448 max: 1.01982
Interface Courant Number mean: 0.00621726 max: 0.83451
deltaT = 0.00130666
Time = 0.127787s

smoothSolver:  Solving for alpha.water, Initial residual = 0.00228497, Final residual = 3.18497e-10, No Iterations 3
Phase-1 volume fraction = 0.198834  Min(alpha.water) = -2.06342e-08  Max(alpha.water) = 1
MULES: Correcting alpha.water
MULES: Correcting alpha.water
Phase-1 volume fraction = 0.198834  Min(alpha.water) = -4.47668e-07  Max(alpha.water) = 1
DICPCG:  Solving for p_rgh, Initial residual = 0.0278343, Final residual = 0.000521363, No Iterations 1
time step continuity errors : sum local = 0.000266486, global = -3.52362e-07
DICPCG:  Solving for p_rgh, Initial residual = 0.000580321, Final residual = 2.73077e-05, No Iterations 10
time step continuity errors : sum local = 1.36508e-05, global = 3.71849e-07
DICPCG:  Solving for p_rgh, Initial residual = 6.36393e-05, Final residual = 8.29326e-08, No Iterations 42
time step continuity errors : sum local = 4.16418e-08, global = -6.46358e-10, cumulative = -1.37869e-07
smoothSolver:  Solving for epsilon, Initial residual = 0.0259855, Final residual = 9.40483e-07, No Iterations 2
smoothSolver:  Solving for k, Initial residual = 0.0091861, Final residual = 7.39488e-08, No Iterations 3
ExecutionTime = 0.66184 s  ClockTime = 0 s

Courant Number mean: 0.0795437 max: 0.979489
Interface Courant Number mean: 0.00640718 max: 0.785575
deltaT = 0.00130666
Time = 0.129093s

smoothSolver:  Solving for alpha.water, Initial residual = 0.00231804, Final residual = 3.18689e-10, No Iterations 3
Phase-1 volume fraction = 0.198834  Min(alpha.water) = -2.01068e-08  Max(alpha.water) = 1
MULES: Correcting alpha.water
MULES: Correcting alpha.water
Phase-1 volume fraction = 0.198834  Min(alpha.water) = -3.3972e-07  Max(alpha.water) = 1.00001
DICPCG:  Solving for p_rgh, Initial residual = 0.0333033, Final residual = 0.000420164, No Iterations 1
time step continuity errors : sum local = 0.000226414, global = -6.03885e-08
DICPCG:  Solving for p_rgh, Initial residual = 0.000475826, Final residual = 2.18904e-05, No Iterations 11
time step continuity errors : sum local = 1.14577e-05, global = -5.1449e-07
DICPCG:  Solving for p_rgh, Initial residual = 5.87909e-05, Final residual = 9.72268e-08, No Iterations 27
time step continuity errors : sum local = 5.11605e-08, global = 1.45214e-08, cumulative = -1.23347e-07
smoothSolver:  Solving for epsilon, Initial residual = 0.0253467, Final residual = 9.23522e-07, No Iterations 2
smoothSolver:  Solving for k, Initial residual = 0.00930915, Final residual = 7.49477e-08, No Iterations 3
ExecutionTime = 0.674208 s  ClockTime = 0 s

Courant Number mean: 0.0803719 max: 0.98894
Interface Courant Number mean: 0.00673868 max: 0.896487
deltaT = 0.00130666
Time = 0.1304s

smoothSolver:  Solving for alpha.water, Initial residual = 0.0023531, Final residual = 3.23526e-10, No Iterations 3
Phase-1 volume fraction = 0.198834  Min(alpha.water) = -1.95042e-08  Max(alpha.water) = 1
MULES: Correcting alpha.water
MULES: Correcting alpha.water
Phase-1 volume fraction = 0.198834  Min(alpha.water) = -7.81745e-07  Max(alpha.water) = 1.00004
DICPCG:  Solving for p_rgh, Initial residual = 0.0319448, Final residual = 0.000505441, No Iterations 1
time step continuity errors : sum local = 0.000258669, global = 1.8089e-07
DICPCG:  Solving for p_rgh, Initial residual = 0.000579519, Final residual = 2.87557e-05, No Iterations 10
time step continuity errors : sum local = 1.43272e-05, global = 6.03786e-08
DICPCG:  Solving for p_rgh, Initial residual = 7.31042e-05, Final residual = 8.35507e-08, No Iterations 43
time step continuity errors : sum local = 4.18611e-08, global = -4.55963e-10, cumulative = -1.23803e-07
smoothSolver:  Solving for epsilon, Initial residual = 0.0240948, Final residual = 9.10147e-07, No Iterations 2
smoothSolver:  Solving for k, Initial residual = 0.00941359, Final residual = 7.63705e-08, No Iterations 3
ExecutionTime = 0.685343 s  ClockTime = 0 s

Courant Number mean: 0.0811985 max: 0.986255
Interface Courant Number mean: 0.00675439 max: 0.881741
deltaT = 0.00130666
Time = 0.131707s

smoothSolver:  Solving for alpha.water, Initial residual = 0.00239142, Final residual = 3.23994e-10, No Iterations 3
Phase-1 volume fraction = 0.198834  Min(alpha.water) = -1.88363e-08  Max(alpha.water) = 1
MULES: Correcting alpha.water
MULES: Correcting alpha.water
Phase-1 volume fraction = 0.198834  Min(alpha.water) = -1.23302e-06  Max(alpha.water) = 1.00001
DICPCG:  Solving for p_rgh, Initial residual = 0.0293009, Final residual = 0.000622103, No Iterations 1
time step continuity errors : sum local = 0.000303803, global = 1.03687e-08
DICPCG:  Solving for p_rgh, Initial residual = 0.000704464, Final residual = 3.21683e-05, No Iterations 11
time step continuity errors : sum local = 1.53323e-05, global = -6.92722e-07
DICPCG:  Solving for p_rgh, Initial residual = 8.5673e-05, Final residual = 8.61246e-08, No Iterations 44
time step continuity errors : sum local = 4.13209e-08, global = -3.25144e-09, cumulative = -1.27055e-07
smoothSolver:  Solving for epsilon, Initial residual = 0.0235334, Final residual = 8.96752e-07, No Iterations 2
smoothSolver:  Solving for k, Initial residual = 0.00958764, Final residual = 7.783e-08, No Iterations 3
ExecutionTime = 0.695797 s  ClockTime = 0 s

Courant Number mean: 0.0820562 max: 0.970159
Interface Courant Number mean: 0.00658861 max: 0.855418
deltaT = 0.00130666
Time = 0.133013s

smoothSolver:  Solving for alpha.water, Initial residual = 0.00243534, Final residual = 3.2401e-10, No Iterations 3
Phase-1 volume fraction = 0.198834  Min(alpha.water) = -1.81128e-08  Max(alpha.water) = 1
MULES: Correcting alpha.water
MULES: Correcting alpha.water
Phase-1 volume fraction = 0.198834  Min(alpha.water) = -1.54733e-06  Max(alpha.water) = 1
DICPCG:  Solving for p_rgh, Initial residual = 0.0285775, Final residual = 0.00080457, No Iterations 1
time step continuity errors : sum local = 0.000381516, global = 1.71626e-07
DICPCG:  Solving for p_rgh, Initial residual = 0.000893538, Final residual = 4.3931e-05, No Iterations 11
time step continuity errors : sum local = 2.03645e-05, global = -1.0997e-06
DICPCG:  Solving for p_rgh, Initial residual = 0.000110314, Final residual = 8.11544e-08, No Iterations 44
time step continuity errors : sum local = 3.78937e-08, global = -9.12201e-10, cumulative = -1.27967e-07
smoothSolver:  Solving for epsilon, Initial residual = 0.0243658, Final residual = 8.73821e-07, No Iterations 2
smoothSolver:  Solving for k, Initial residual = 0.00978446, Final residual = 7.95652e-08, No Iterations 3
ExecutionTime = 0.708943 s  ClockTime = 0 s

Courant Number mean: 0.0829673 max: 0.935896
Interface Courant Number mean: 0.00685463 max: 0.935896
deltaT = 0.00130666
Time = 0.13432s

smoothSolver:  Solving for alpha.water, Initial residual = 0.00248898, Final residual = 3.27517e-10, No Iterations 3
Phase-1 volume fraction = 0.198834  Min(alpha.water) = -1.73426e-08  Max(alpha.water) = 1
MULES: Correcting alpha.water
MULES: Correcting alpha.water
Phase-1 volume fraction = 0.198834  Min(alpha.water) = -1.02542e-06  Max(alpha.water) = 1
DICPCG:  Solving for p_rgh, Initial residual = 0.0261756, Final residual = 0.000892069, No Iterations 1
time step continuity errors : sum local = 0.000412535, global = 2.28634e-07
DICPCG:  Solving for p_rgh, Initial residual = 0.000987397, Final residual = 4.58446e-05, No Iterations 11
time step continuity errors : sum local = 2.0771e-05, global = 5.68443e-08
DICPCG:  Solving for p_rgh, Initial residual = 0.00012316, Final residual = 8.11692e-08, No Iterations 44
time step continuity errors : sum local = 3.70302e-08, global = 3.23033e-11, cumulative = -1.27934e-07
smoothSolver:  Solving for epsilon, Initial residual = 0.0277035, Final residual = 8.55372e-07, No Iterations 2
smoothSolver:  Solving for k, Initial residual = 0.00990041, Final residual = 8.09872e-08, No Iterations 3
ExecutionTime = 0.720961 s  ClockTime = 0 s

Courant Number mean: 0.0838271 max: 0.882803
Interface Courant Number mean: 0.00680316 max: 0.882803
deltaT = 0.00142545
Time = 0.135746s

smoothSolver:  Solving for alpha.water, Initial residual = 0.00273459, Final residual = 5.55311e-10, No Iterations 3
Phase-1 volume fraction = 0.198834  Min(alpha.water) = -1.6457e-08  Max(alpha.water) = 1
MULES: Correcting alpha.water
MULES: Correcting alpha.water
Phase-1 volume fraction = 0.198834  Min(alpha.water) = -1.6457e-08  Max(alpha.water) = 1
DICPCG:  Solving for p_rgh, Initial residual = 0.0267512, Final residual = 0.000942763, No Iterations 1
time step continuity errors : sum local = 0.000501721, global = -3.89987e-08
DICPCG:  Solving for p_rgh, Initial residual = 0.00107289, Final residual = 5.0296e-05, No Iterations 11
time step continuity errors : sum local = 2.62435e-05, global = -1.18165e-07
DICPCG:  Solving for p_rgh, Initial residual = 0.000146585, Final residual = 8.92944e-08, No Iterations 44
time step continuity errors : sum local = 4.69687e-08, global = -3.01771e-09, cumulative = -1.30952e-07
smoothSolver:  Solving for epsilon, Initial residual = 0.0325242, Final residual = 3.25443e-08, No Iterations 3
smoothSolver:  Solving for k, Initial residual = 0.0109144, Final residual = 1.32211e-07, No Iterations 3
ExecutionTime = 0.732437 s  ClockTime = 0 s

Courant Number mean: 0.0924633 max: 0.935317
Interface Courant Number mean: 0.00800022 max: 0.924228
deltaT = 0.00142545
Time = 0.137171s

smoothSolver:  Solving for alpha.water, Initial residual = 0.00274856, Final residual = 5.51396e-10, No Iterations 3
Phase-1 volume fraction = 0.198834  Min(alpha.water) = -1.59082e-08  Max(alpha.water) = 1
MULES: Correcting alpha.water
MULES: Correcting alpha.water
Phase-1 volume fraction = 0.198834  Min(alpha.water) = -1.59082e-08  Max(alpha.water) = 1
DICPCG:  Solving for p_rgh, Initial residual = 0.0252063, Final residual = 0.000878763, No Iterations 1
time step continuity errors : sum local = 0.000471253, global = -9.97871e-09
DICPCG:  Solving for p_rgh, Initial residual = 0.00100419, Final residual = 4.74847e-05, No Iterations 12
time step continuity errors : sum local = 2.50444e-05, global = 7.65415e-07
DICPCG:  Solving for p_rgh, Initial residual = 0.00014155, Final residual = 6.69476e-08, No Iterations 45
time step continuity errors : sum local = 3.56724e-08, global = 2.92938e-09, cumulative = -1.28023e-07
smoothSolver:  Solving for epsilon, Initial residual = 0.0361853, Final residual = 3.16468e-08, No Iterations 3
smoothSolver:  Solving for k, Initial residual = 0.0111886, Final residual = 1.35836e-07, No Iterations 3
ExecutionTime = 0.745041 s  ClockTime = 0 s

Courant Number mean: 0.0934349 max: 0.95064
Interface Courant Number mean: 0.00830419 max: 0.917745
deltaT = 0.00142545
Time = 0.138596s

smoothSolver:  Solving for alpha.water, Initial residual = 0.00279241, Final residual = 5.43145e-10, No Iterations 3
Phase-1 volume fraction = 0.198834  Min(alpha.water) = -1.57422e-08  Max(alpha.water) = 1
MULES: Correcting alpha.water
MULES: Correcting alpha.water
Phase-1 volume fraction = 0.198834  Min(alpha.water) = -1.57422e-08  Max(alpha.water) = 1.00001
DICPCG:  Solving for p_rgh, Initial residual = 0.026422, Final residual = 0.000747905, No Iterations 1
time step continuity errors : sum local = 0.000424604, global = -7.66084e-08
DICPCG:  Solving for p_rgh, Initial residual = 0.000837244, Final residual = 3.71207e-05, No Iterations 12
time step continuity errors : sum local = 2.06915e-05, global = 1.60818e-07
DICPCG:  Solving for p_rgh, Initial residual = 0.000111956, Final residual = 7.10256e-08, No Iterations 43
time step continuity errors : sum local = 3.99455e-08, global = 6.90253e-09, cumulative = -1.2112e-07
smoothSolver:  Solving for epsilon, Initial residual = 0.0322451, Final residual = 3.10147e-08, No Iterations 3
smoothSolver:  Solving for k, Initial residual = 0.0113787, Final residual = 1.39252e-07, No Iterations 3
ExecutionTime = 0.757266 s  ClockTime = 0 s

Courant Number mean: 0.0943481 max: 0.953556
Interface Courant Number mean: 0.00804918 max: 0.894261
deltaT = 0.00142545
Time = 0.140022s

smoothSolver:  Solving for alpha.water, Initial residual = 0.00283072, Final residual = 5.48219e-10, No Iterations 3
Phase-1 volume fraction = 0.198834  Min(alpha.water) = -1.5472e-08  Max(alpha.water) = 1
MULES: Correcting alpha.water
MULES: Correcting alpha.water
Phase-1 volume fraction = 0.198834  Min(alpha.water) = -1.5472e-08  Max(alpha.water) = 1.00003
DICPCG:  Solving for p_rgh, Initial residual = 0.0345015, Final residual = 0.000623324, No Iterations 1
time step continuity errors : sum local = 0.000389704, global = 1.97485e-08
DICPCG:  Solving for p_rgh, Initial residual = 0.000720168, Final residual = 3.43707e-05, No Iterations 12
time step continuity errors : sum local = 2.08816e-05, global = -4.52636e-08
DICPCG:  Solving for p_rgh, Initial residual = 9.95594e-05, Final residual = 8.61133e-08, No Iterations 43
time step continuity errors : sum local = 5.27656e-08, global = 3.49435e-09, cumulative = -1.17626e-07
smoothSolver:  Solving for epsilon, Initial residual = 0.031232, Final residual = 3.02762e-08, No Iterations 3
smoothSolver:  Solving for k, Initial residual = 0.0115018, Final residual = 1.4301e-07, No Iterations 3
ExecutionTime = 0.768579 s  ClockTime = 0 s

Courant Number mean: 0.0952662 max: 0.94202
Interface Courant Number mean: 0.00811976 max: 0.94202
deltaT = 0.00142545
Time = 0.141447s

smoothSolver:  Solving for alpha.water, Initial residual = 0.00290226, Final residual = 5.56723e-10, No Iterations 3
Phase-1 volume fraction = 0.198834  Min(alpha.water) = -1.51064e-08  Max(alpha.water) = 1
MULES: Correcting alpha.water
MULES: Correcting alpha.water
Phase-1 volume fraction = 0.198834  Min(alpha.water) = -1.51064e-08  Max(alpha.water) = 1.00001
DICPCG:  Solving for p_rgh, Initial residual = 0.0343845, Final residual = 0.000630311, No Iterations 1
time step continuity errors : sum local = 0.000388148, global = 2.13751e-08
DICPCG:  Solving for p_rgh, Initial residual = 0.000717572, Final residual = 3.38968e-05, No Iterations 13
time step continuity errors : sum local = 2.02914e-05, global = 2.53036e-07
DICPCG:  Solving for p_rgh, Initial residual = 0.000101253, Final residual = 9.07186e-08, No Iterations 45
time step continuity errors : sum local = 5.49008e-08, global = 8.22646e-09, cumulative = -1.09399e-07
smoothSolver:  Solving for epsilon, Initial residual = 0.0327673, Final residual = 2.95536e-08, No Iterations 3
smoothSolver:  Solving for k, Initial residual = 0.011767, Final residual = 1.48117e-07, No Iterations 3
ExecutionTime = 0.777883 s  ClockTime = 0 s

Courant Number mean: 0.0962521 max: 0.947831
Interface Courant Number mean: 0.00863797 max: 0.915832
deltaT = 0.00142545
Time = 0.142873s

smoothSolver:  Solving for alpha.water, Initial residual = 0.00292957, Final residual = 5.65827e-10, No Iterations 3
Phase-1 volume fraction = 0.198834  Min(alpha.water) = -1.46534e-08  Max(alpha.water) = 1
MULES: Correcting alpha.water
MULES: Correcting alpha.water
Phase-1 volume fraction = 0.198834  Min(alpha.water) = -1.46534e-08  Max(alpha.water) = 1
DICPCG:  Solving for p_rgh, Initial residual = 0.0327245, Final residual = 0.000812298, No Iterations 1
time step continuity errors : sum local = 0.000483593, global = 1.07364e-07
DICPCG:  Solving for p_rgh, Initial residual = 0.000914666, Final residual = 4.47039e-05, No Iterations 12
time step continuity errors : sum local = 2.59058e-05, global = -7.46626e-07
DICPCG:  Solving for p_rgh, Initial residual = 0.000123151, Final residual = 9.70522e-08, No Iterations 45
time step continuity errors : sum local = 5.68163e-08, global = 1.98476e-09, cumulative = -1.07415e-07
smoothSolver:  Solving for epsilon, Initial residual = 0.033577, Final residual = 2.87606e-08, No Iterations 3
smoothSolver:  Solving for k, Initial residual = 0.0121537, Final residual = 1.54104e-07, No Iterations 3
ExecutionTime = 0.790149 s  ClockTime = 0 s

Courant Number mean: 0.0972881 max: 0.948123
Interface Courant Number mean: 0.00911961 max: 0.948123
deltaT = 0.00142545
Time = 0.144298s

smoothSolver:  Solving for alpha.water, Initial residual = 0.00299029, Final residual = 5.84001e-10, No Iterations 3
Phase-1 volume fraction = 0.198834  Min(alpha.water) = -1.41197e-08  Max(alpha.water) = 1
MULES: Correcting alpha.water
MULES: Correcting alpha.water
Phase-1 volume fraction = 0.198834  Min(alpha.water) = -5.84209e-07  Max(alpha.water) = 1.00001
DICPCG:  Solving for p_rgh, Initial residual = 0.028983, Final residual = 0.000881067, No Iterations 1
time step continuity errors : sum local = 0.000507506, global = 7.19214e-08
DICPCG:  Solving for p_rgh, Initial residual = 0.000998657, Final residual = 3.77212e-05, No Iterations 13
time step continuity errors : sum local = 2.12339e-05, global = 7.48989e-09
DICPCG:  Solving for p_rgh, Initial residual = 0.000125196, Final residual = 9.4952e-08, No Iterations 47
time step continuity errors : sum local = 5.40779e-08, global = 5.38577e-09, cumulative = -1.02029e-07
smoothSolver:  Solving for epsilon, Initial residual = 0.0308303, Final residual = 2.75648e-08, No Iterations 3
smoothSolver:  Solving for k, Initial residual = 0.0125346, Final residual = 1.61159e-07, No Iterations 3
ExecutionTime = 0.801362 s  ClockTime = 0 s

Courant Number mean: 0.0983649 max: 0.93105
Interface Courant Number mean: 0.00976935 max: 0.93105
deltaT = 0.00142545
Time = 0.145724s

smoothSolver:  Solving for alpha.water, Initial residual = 0.0030462, Final residual = 5.93147e-10, No Iterations 3
Phase-1 volume fraction = 0.198834  Min(alpha.water) = -1.35137e-08  Max(alpha.water) = 1
MULES: Correcting alpha.water
MULES: Correcting alpha.water
Phase-1 volume fraction = 0.198834  Min(alpha.water) = -1.6259e-06  Max(alpha.water) = 1.00001
DICPCG:  Solving for p_rgh, Initial residual = 0.0272837, Final residual = 0.000877229, No Iterations 1
time step continuity errors : sum local = 0.000498618, global = 1.3978e-07
DICPCG:  Solving for p_rgh, Initial residual = 0.000992169, Final residual = 4.31889e-05, No Iterations 13
time step continuity errors : sum local = 2.40608e-05, global = 6.7253e-07
DICPCG:  Solving for p_rgh, Initial residual = 0.000132109, Final residual = 9.83687e-08, No Iterations 45
[...]
ExecutionTime = 7.97241 s  ClockTime = 8 s

Courant Number mean: 0.299083 max: 0.984629
Interface Courant Number mean: 0.041301 max: 0.749563
deltaT = 0.00184013
Time = 0.976078s

smoothSolver:  Solving for alpha.water, Initial residual = 0.00609148, Final residual = 2.24195e-10, No Iterations 4
Phase-1 volume fraction = 0.195127  Min(alpha.water) = -2.4361e-17  Max(alpha.water) = 1
MULES: Correcting alpha.water
MULES: Correcting alpha.water
Phase-1 volume fraction = 0.195127  Min(alpha.water) = -4.12619e-05  Max(alpha.water) = 1
DICPCG:  Solving for p_rgh, Initial residual = 0.0340205, Final residual = 0.000501585, No Iterations 2
time step continuity errors : sum local = 0.000299248, global = -2.36874e-05
DICPCG:  Solving for p_rgh, Initial residual = 0.000679418, Final residual = 3.23875e-05, No Iterations 8
time step continuity errors : sum local = 1.92264e-05, global = -3.3874e-06
DICPCG:  Solving for p_rgh, Initial residual = 0.000181406, Final residual = 9.89061e-08, No Iterations 55
time step continuity errors : sum local = 5.86831e-08, global = -5.88886e-09, cumulative = 1.92336e-07
smoothSolver:  Solving for epsilon, Initial residual = 0.0155003, Final residual = 7.6055e-08, No Iterations 4
smoothSolver:  Solving for k, Initial residual = 0.00806177, Final residual = 1.24728e-07, No Iterations 4
ExecutionTime = 7.98233 s  ClockTime = 8 s

Courant Number mean: 0.298644 max: 0.978869
Interface Courant Number mean: 0.0410386 max: 0.753053
deltaT = 0.00184013
Time = 0.977918s

smoothSolver:  Solving for alpha.water, Initial residual = 0.00607315, Final residual = 2.13536e-10, No Iterations 4
Phase-1 volume fraction = 0.195118  Min(alpha.water) = -2.0668e-17  Max(alpha.water) = 1
MULES: Correcting alpha.water
MULES: Correcting alpha.water
Phase-1 volume fraction = 0.195118  Min(alpha.water) = -4.01103e-06  Max(alpha.water) = 1
DICPCG:  Solving for p_rgh, Initial residual = 0.0329358, Final residual = 0.00047426, No Iterations 2
time step continuity errors : sum local = 0.000289727, global = -2.64877e-05
DICPCG:  Solving for p_rgh, Initial residual = 0.000637167, Final residual = 2.32759e-05, No Iterations 9
time step continuity errors : sum local = 1.41392e-05, global = -3.97402e-06
DICPCG:  Solving for p_rgh, Initial residual = 0.000164708, Final residual = 7.78336e-08, No Iterations 56
time step continuity errors : sum local = 4.72499e-08, global = -3.71358e-09, cumulative = 1.88622e-07
smoothSolver:  Solving for epsilon, Initial residual = 0.0115673, Final residual = 7.36167e-07, No Iterations 3
smoothSolver:  Solving for k, Initial residual = 0.00822775, Final residual = 1.20279e-07, No Iterations 4
ExecutionTime = 7.99554 s  ClockTime = 8 s

Courant Number mean: 0.298075 max: 0.98035
Interface Courant Number mean: 0.0410343 max: 0.746402
deltaT = 0.00184013
Time = 0.979759s

smoothSolver:  Solving for alpha.water, Initial residual = 0.00605533, Final residual = 2.02429e-10, No Iterations 4
Phase-1 volume fraction = 0.195108  Min(alpha.water) = -1.75286e-17  Max(alpha.water) = 1
MULES: Correcting alpha.water
MULES: Correcting alpha.water
Phase-1 volume fraction = 0.195108  Min(alpha.water) = -3.8402e-06  Max(alpha.water) = 1
DICPCG:  Solving for p_rgh, Initial residual = 0.0333392, Final residual = 0.000475536, No Iterations 2
time step continuity errors : sum local = 0.000289721, global = -1.97709e-05
DICPCG:  Solving for p_rgh, Initial residual = 0.000639787, Final residual = 2.95447e-05, No Iterations 12
time step continuity errors : sum local = 1.78884e-05, global = -4.43706e-06
DICPCG:  Solving for p_rgh, Initial residual = 0.000164151, Final residual = 9.71162e-08, No Iterations 56
time step continuity errors : sum local = 5.86944e-08, global = -2.43692e-09, cumulative = 1.86186e-07
smoothSolver:  Solving for epsilon, Initial residual = 0.0149854, Final residual = 9.04694e-07, No Iterations 3
smoothSolver:  Solving for k, Initial residual = 0.00794066, Final residual = 1.10989e-07, No Iterations 4
ExecutionTime = 8.00796 s  ClockTime = 8 s

Courant Number mean: 0.297283 max: 0.975662
Interface Courant Number mean: 0.0406092 max: 0.712391
deltaT = 0.00184013
Time = 0.981599s

smoothSolver:  Solving for alpha.water, Initial residual = 0.00602292, Final residual = 9.99934e-09, No Iterations 3
Phase-1 volume fraction = 0.195097  Min(alpha.water) = -1.48645e-17  Max(alpha.water) = 1
MULES: Correcting alpha.water
MULES: Correcting alpha.water
Phase-1 volume fraction = 0.195096  Min(alpha.water) = -4.36636e-06  Max(alpha.water) = 1
DICPCG:  Solving for p_rgh, Initial residual = 0.0326663, Final residual = 0.000502671, No Iterations 2
time step continuity errors : sum local = 0.000304332, global = -1.92114e-05
DICPCG:  Solving for p_rgh, Initial residual = 0.000664045, Final residual = 3.01808e-05, No Iterations 9
time step continuity errors : sum local = 1.81351e-05, global = -9.66493e-08
DICPCG:  Solving for p_rgh, Initial residual = 0.000170135, Final residual = 9.20783e-08, No Iterations 56
time step continuity errors : sum local = 5.52621e-08, global = -5.44801e-09, cumulative = 1.80738e-07
smoothSolver:  Solving for epsilon, Initial residual = 0.0104998, Final residual = 5.96671e-07, No Iterations 3
smoothSolver:  Solving for k, Initial residual = 0.00798293, Final residual = 1.08505e-07, No Iterations 4
ExecutionTime = 8.01893 s  ClockTime = 8 s

Courant Number mean: 0.296371 max: 0.96572
Interface Courant Number mean: 0.0392877 max: 0.719193
deltaT = 0.00184013
Time = 0.983439s

smoothSolver:  Solving for alpha.water, Initial residual = 0.00595012, Final residual = 9.4033e-09, No Iterations 3
Phase-1 volume fraction = 0.195085  Min(alpha.water) = -1.26058e-17  Max(alpha.water) = 1
MULES: Correcting alpha.water
MULES: Correcting alpha.water
Phase-1 volume fraction = 0.195085  Min(alpha.water) = -1.15524e-05  Max(alpha.water) = 1
DICPCG:  Solving for p_rgh, Initial residual = 0.0332084, Final residual = 0.000468479, No Iterations 2
time step continuity errors : sum local = 0.00028374, global = -2.41673e-05
DICPCG:  Solving for p_rgh, Initial residual = 0.000638396, Final residual = 2.64694e-05, No Iterations 9
time step continuity errors : sum local = 1.59379e-05, global = -3.21848e-06
DICPCG:  Solving for p_rgh, Initial residual = 0.000157737, Final residual = 7.48559e-08, No Iterations 56
time step continuity errors : sum local = 4.50298e-08, global = -2.70828e-09, cumulative = 1.78029e-07
smoothSolver:  Solving for epsilon, Initial residual = 0.0136031, Final residual = 7.58247e-07, No Iterations 3
smoothSolver:  Solving for k, Initial residual = 0.00774628, Final residual = 1.02466e-07, No Iterations 4
ExecutionTime = 8.03 s  ClockTime = 8 s

Courant Number mean: 0.295301 max: 0.955686
Interface Courant Number mean: 0.0402283 max: 0.723571
deltaT = 0.00184013
Time = 0.985279s

smoothSolver:  Solving for alpha.water, Initial residual = 0.0058971, Final residual = 8.82082e-09, No Iterations 3
Phase-1 volume fraction = 0.195074  Min(alpha.water) = -1.06926e-17  Max(alpha.water) = 1
MULES: Correcting alpha.water
MULES: Correcting alpha.water
Phase-1 volume fraction = 0.195073  Min(alpha.water) = -2.94526e-06  Max(alpha.water) = 1
DICPCG:  Solving for p_rgh, Initial residual = 0.0343279, Final residual = 0.000492408, No Iterations 2
time step continuity errors : sum local = 0.000298695, global = -1.28536e-05
DICPCG:  Solving for p_rgh, Initial residual = 0.000647701, Final residual = 2.91314e-05, No Iterations 9
time step continuity errors : sum local = 1.75853e-05, global = -1.5679e-07
DICPCG:  Solving for p_rgh, Initial residual = 0.000169402, Final residual = 8.50367e-08, No Iterations 55
time step continuity errors : sum local = 5.12904e-08, global = -2.28926e-09, cumulative = 1.7574e-07
smoothSolver:  Solving for epsilon, Initial residual = 0.0103487, Final residual = 5.7723e-07, No Iterations 3
smoothSolver:  Solving for k, Initial residual = 0.00778416, Final residual = 1.01639e-07, No Iterations 4
ExecutionTime = 8.04278 s  ClockTime = 8 s

Courant Number mean: 0.294144 max: 0.951329
Interface Courant Number mean: 0.0393926 max: 0.726849
deltaT = 0.00184013
Time = 0.987119s

smoothSolver:  Solving for alpha.water, Initial residual = 0.00587411, Final residual = 8.22627e-09, No Iterations 3
Phase-1 volume fraction = 0.195061  Min(alpha.water) = -9.07239e-18  Max(alpha.water) = 1
MULES: Correcting alpha.water
MULES: Correcting alpha.water
Phase-1 volume fraction = 0.195061  Min(alpha.water) = -7.87411e-06  Max(alpha.water) = 1
DICPCG:  Solving for p_rgh, Initial residual = 0.032763, Final residual = 0.00050719, No Iterations 2
time step continuity errors : sum local = 0.000309013, global = -1.33307e-05
DICPCG:  Solving for p_rgh, Initial residual = 0.000665837, Final residual = 2.93326e-05, No Iterations 9
time step continuity errors : sum local = 1.7743e-05, global = -2.86802e-06
DICPCG:  Solving for p_rgh, Initial residual = 0.000168749, Final residual = 6.61106e-08, No Iterations 55
time step continuity errors : sum local = 3.99379e-08, global = -2.32058e-09, cumulative = 1.73419e-07
smoothSolver:  Solving for epsilon, Initial residual = 0.0130332, Final residual = 6.86207e-07, No Iterations 3
smoothSolver:  Solving for k, Initial residual = 0.00764568, Final residual = 1.01136e-07, No Iterations 4
ExecutionTime = 8.05456 s  ClockTime = 8 s

Courant Number mean: 0.292862 max: 0.947814
Interface Courant Number mean: 0.0384475 max: 0.699239
deltaT = 0.00184013
Time = 0.988959s

smoothSolver:  Solving for alpha.water, Initial residual = 0.00583176, Final residual = 7.70402e-09, No Iterations 3
Phase-1 volume fraction = 0.195049  Min(alpha.water) = -7.7008e-18  Max(alpha.water) = 1
MULES: Correcting alpha.water
MULES: Correcting alpha.water
Phase-1 volume fraction = 0.195049  Min(alpha.water) = -7.73966e-06  Max(alpha.water) = 1
DICPCG:  Solving for p_rgh, Initial residual = 0.0323518, Final residual = 0.000464223, No Iterations 2
time step continuity errors : sum local = 0.000284487, global = -6.17799e-06
DICPCG:  Solving for p_rgh, Initial residual = 0.000621206, Final residual = 2.8227e-05, No Iterations 22
time step continuity errors : sum local = 1.71775e-05, global = 1.09628e-06
DICPCG:  Solving for p_rgh, Initial residual = 0.000156603, Final residual = 7.51184e-08, No Iterations 57
time step continuity errors : sum local = 4.56032e-08, global = -2.41976e-09, cumulative = 1.71e-07
smoothSolver:  Solving for epsilon, Initial residual = 0.0116311, Final residual = 5.76952e-07, No Iterations 3
smoothSolver:  Solving for k, Initial residual = 0.00762522, Final residual = 1.04838e-07, No Iterations 4
ExecutionTime = 8.06487 s  ClockTime = 8 s

Courant Number mean: 0.291515 max: 0.955406
Interface Courant Number mean: 0.0372441 max: 0.680888
deltaT = 0.00184013
Time = 0.990799s

smoothSolver:  Solving for alpha.water, Initial residual = 0.00578794, Final residual = 7.24241e-09, No Iterations 3
Phase-1 volume fraction = 0.195035  Min(alpha.water) = -6.54001e-18  Max(alpha.water) = 1
MULES: Correcting alpha.water
MULES: Correcting alpha.water
Phase-1 volume fraction = 0.195035  Min(alpha.water) = -1.44668e-06  Max(alpha.water) = 1
DICPCG:  Solving for p_rgh, Initial residual = 0.0328301, Final residual = 0.000467657, No Iterations 2
time step continuity errors : sum local = 0.000295421, global = -3.38261e-06
DICPCG:  Solving for p_rgh, Initial residual = 0.000621577, Final residual = 2.71489e-05, No Iterations 10
time step continuity errors : sum local = 1.70577e-05, global = 3.5392e-08
DICPCG:  Solving for p_rgh, Initial residual = 0.000154852, Final residual = 7.24567e-08, No Iterations 55
time step continuity errors : sum local = 4.55018e-08, global = -2.33677e-09, cumulative = 1.68663e-07
smoothSolver:  Solving for epsilon, Initial residual = 0.0122633, Final residual = 5.86481e-07, No Iterations 3
smoothSolver:  Solving for k, Initial residual = 0.00754213, Final residual = 1.10678e-07, No Iterations 4
ExecutionTime = 8.077 s  ClockTime = 8 s

Courant Number mean: 0.290173 max: 0.974106
Interface Courant Number mean: 0.036855 max: 0.681237
deltaT = 0.00184013
Time = 0.992639s

smoothSolver:  Solving for alpha.water, Initial residual = 0.00575111, Final residual = 6.81255e-09, No Iterations 3
Phase-1 volume fraction = 0.19502  Min(alpha.water) = -5.55738e-18  Max(alpha.water) = 1
MULES: Correcting alpha.water
MULES: Correcting alpha.water
Phase-1 volume fraction = 0.19502  Min(alpha.water) = -8.0674e-06  Max(alpha.water) = 1
DICPCG:  Solving for p_rgh, Initial residual = 0.0317622, Final residual = 0.000450156, No Iterations 2
time step continuity errors : sum local = 0.000293855, global = -3.78959e-06
DICPCG:  Solving for p_rgh, Initial residual = 0.000605321, Final residual = 2.4809e-05, No Iterations 11
time step continuity errors : sum local = 1.61008e-05, global = -2.54987e-06
DICPCG:  Solving for p_rgh, Initial residual = 0.000147491, Final residual = 7.09296e-08, No Iterations 55
time step continuity errors : sum local = 4.59992e-08, global = -1.65182e-09, cumulative = 1.67011e-07
smoothSolver:  Solving for epsilon, Initial residual = 0.0106013, Final residual = 5.32535e-07, No Iterations 3
smoothSolver:  Solving for k, Initial residual = 0.00745591, Final residual = 1.17995e-07, No Iterations 4
ExecutionTime = 8.08815 s  ClockTime = 8 s

Courant Number mean: 0.288731 max: 0.995207
Interface Courant Number mean: 0.0357199 max: 0.665276
deltaT = 0.00184013
Time = 0.99448s

smoothSolver:  Solving for alpha.water, Initial residual = 0.00568651, Final residual = 6.45485e-09, No Iterations 3
Phase-1 volume fraction = 0.195004  Min(alpha.water) = -4.72566e-18  Max(alpha.water) = 1
MULES: Correcting alpha.water
MULES: Correcting alpha.water
Phase-1 volume fraction = 0.195004  Min(alpha.water) = -8.09263e-07  Max(alpha.water) = 1
DICPCG:  Solving for p_rgh, Initial residual = 0.0292631, Final residual = 0.000388905, No Iterations 2
time step continuity errors : sum local = 0.000261719, global = -6.66491e-07
DICPCG:  Solving for p_rgh, Initial residual = 0.000556309, Final residual = 2.1413e-05, No Iterations 11
time step continuity errors : sum local = 1.4306e-05, global = -2.53589e-06
DICPCG:  Solving for p_rgh, Initial residual = 0.000132963, Final residual = 6.83869e-08, No Iterations 54
time step continuity errors : sum local = 4.56595e-08, global = 1.8906e-09, cumulative = 1.68902e-07
smoothSolver:  Solving for epsilon, Initial residual = 0.00964892, Final residual = 4.75101e-07, No Iterations 3
smoothSolver:  Solving for k, Initial residual = 0.00748159, Final residual = 1.2925e-07, No Iterations 4
ExecutionTime = 8.0981 s  ClockTime = 8 s

Courant Number mean: 0.287226 max: 1.01676
Interface Courant Number mean: 0.036249 max: 0.640581
deltaT = 0.0013801
Time = 0.99586s

smoothSolver:  Solving for alpha.water, Initial residual = 0.00420418, Final residual = 1.17839e-09, No Iterations 3
Phase-1 volume fraction = 0.19499  Min(alpha.water) = -7.72119e-08  Max(alpha.water) = 1
MULES: Correcting alpha.water
MULES: Correcting alpha.water
Phase-1 volume fraction = 0.19499  Min(alpha.water) = -7.75378e-08  Max(alpha.water) = 1
DICPCG:  Solving for p_rgh, Initial residual = 0.022679, Final residual = 0.000325433, No Iterations 2
time step continuity errors : sum local = 0.000140429, global = 2.55644e-06
DICPCG:  Solving for p_rgh, Initial residual = 0.00045558, Final residual = 2.09782e-05, No Iterations 11
time step continuity errors : sum local = 9.01377e-06, global = 4.26622e-07
DICPCG:  Solving for p_rgh, Initial residual = 9.76629e-05, Final residual = 9.45518e-08, No Iterations 50
time step continuity errors : sum local = 4.05734e-08, global = -1.36806e-09, cumulative = 1.67534e-07
smoothSolver:  Solving for epsilon, Initial residual = 0.00873836, Final residual = 1.37695e-07, No Iterations 3
smoothSolver:  Solving for k, Initial residual = 0.00584128, Final residual = 3.56694e-07, No Iterations 3
ExecutionTime = 8.11114 s  ClockTime = 8 s

Courant Number mean: 0.214557 max: 0.775244
Interface Courant Number mean: 0.0271067 max: 0.4819
deltaT = 0.0013801
Time = 0.99724s

smoothSolver:  Solving for alpha.water, Initial residual = 0.00417481, Final residual = 1.11356e-09, No Iterations 3
Phase-1 volume fraction = 0.194976  Min(alpha.water) = -2.75782e-08  Max(alpha.water) = 1
MULES: Correcting alpha.water
MULES: Correcting alpha.water
Phase-1 volume fraction = 0.194976  Min(alpha.water) = -1.16204e-06  Max(alpha.water) = 1
DICPCG:  Solving for p_rgh, Initial residual = 0.0236294, Final residual = 0.000388289, No Iterations 2
time step continuity errors : sum local = 0.000169868, global = 2.65377e-06
DICPCG:  Solving for p_rgh, Initial residual = 0.000523131, Final residual = 2.36621e-05, No Iterations 23
time step continuity errors : sum local = 1.02942e-05, global = 1.40995e-06
DICPCG:  Solving for p_rgh, Initial residual = 0.00011428, Final residual = 9.71404e-08, No Iterations 55
time step continuity errors : sum local = 4.21745e-08, global = -4.42526e-10, cumulative = 1.67091e-07
smoothSolver:  Solving for epsilon, Initial residual = 0.0087219, Final residual = 1.48962e-07, No Iterations 3
smoothSolver:  Solving for k, Initial residual = 0.00588853, Final residual = 3.80081e-07, No Iterations 3
ExecutionTime = 8.1232 s  ClockTime = 8 s

Courant Number mean: 0.213679 max: 0.786004
Interface Courant Number mean: 0.0261572 max: 0.467043
deltaT = 0.0013801
Time = 0.99862s

smoothSolver:  Solving for alpha.water, Initial residual = 0.00415087, Final residual = 1.03928e-09, No Iterations 3
Phase-1 volume fraction = 0.194959  Min(alpha.water) = -6.9405e-10  Max(alpha.water) = 1
MULES: Correcting alpha.water
MULES: Correcting alpha.water
Phase-1 volume fraction = 0.19496  Min(alpha.water) = -9.75539e-07  Max(alpha.water) = 1
DICPCG:  Solving for p_rgh, Initial residual = 0.0234971, Final residual = 0.000307606, No Iterations 2
time step continuity errors : sum local = 0.000135028, global = 3.60862e-07
DICPCG:  Solving for p_rgh, Initial residual = 0.000437112, Final residual = 1.80345e-05, No Iterations 20
time step continuity errors : sum local = 7.88015e-06, global = 3.6148e-07
DICPCG:  Solving for p_rgh, Initial residual = 9.50401e-05, Final residual = 8.84712e-08, No Iterations 55
time step continuity errors : sum local = 3.86208e-08, global = 6.29722e-11, cumulative = 1.67154e-07
smoothSolver:  Solving for epsilon, Initial residual = 0.00908935, Final residual = 1.71114e-07, No Iterations 3
smoothSolver:  Solving for k, Initial residual = 0.0058647, Final residual = 3.99094e-07, No Iterations 3
ExecutionTime = 8.13321 s  ClockTime = 8 s

Courant Number mean: 0.212739 max: 0.794187
Interface Courant Number mean: 0.0258241 max: 0.470771
deltaT = 0.0013801
Time = 1s

smoothSolver:  Solving for alpha.water, Initial residual = 0.00413326, Final residual = 1.00514e-09, No Iterations 3
Phase-1 volume fraction = 0.194941  Min(alpha.water) = -9.56954e-12  Max(alpha.water) = 1
MULES: Correcting alpha.water
MULES: Correcting alpha.water
Phase-1 volume fraction = 0.194942  Min(alpha.water) = -5.86376e-07  Max(alpha.water) = 1
DICPCG:  Solving for p_rgh, Initial residual = 0.022397, Final residual = 0.000265955, No Iterations 2
time step continuity errors : sum local = 0.000117739, global = 2.59181e-06
DICPCG:  Solving for p_rgh, Initial residual = 0.000390916, Final residual = 1.72931e-05, No Iterations 23
time step continuity errors : sum local = 7.62136e-06, global = 1.53889e-06
DICPCG:  Solving for p_rgh, Initial residual = 8.57143e-05, Final residual = 7.39822e-08, No Iterations 54
time step continuity errors : sum local = 3.25522e-08, global = 1.96932e-09, cumulative = 1.69123e-07
smoothSolver:  Solving for epsilon, Initial residual = 0.00848105, Final residual = 1.75074e-07, No Iterations 3
smoothSolver:  Solving for k, Initial residual = 0.00591932, Final residual = 4.23253e-07, No Iterations 3
ExecutionTime = 8.16083 s  ClockTime = 8 s

End

