
interFoam has been superseded and replaced by the more general
incompressibleVoF solver module executed by the foamRun application:

    foamRun -solver incompressibleVoF

/*---------------------------------------------------------------------------*\
  =========                 |
  \\      /  F ield         | OpenFOAM: The Open Source CFD Toolbox
   \\    /   O peration     | Website:  https://openfoam.org
    \\  /    A nd           | Version:  12
     \\/     M anipulation  |
\*---------------------------------------------------------------------------*/
Build  : 12-86e126a7bc4d
Exec   : foamRun -solver incompressibleVoF
Date   : Mar 06 2025
Time   : 23:40:04
Host   : "yyz-MacBookAir-Ubuntu"
PID    : 35477
I/O    : uncollated
Case   : /home/yyz/OpenFOAM/yyz-12/run/damBreak
nProcs : 1
sigFpe : Enabling floating point exception trapping (FOAM_SIGFPE).
fileModificationChecking : Monitoring run-time modified files using timeStampMaster (fileModificationSkew 10)
allowSystemOperations : Allowing user-supplied system call operations

// * * * * * * * * * * * * * * * * * * * * * * * * * * * * * * * * * * * * * //
Create time

Create mesh for time = 0

Selecting solver incompressibleVoF
Selecting viscosity model constant
Selecting viscosity model constant
No MRF models present

Courant Number mean: 0 max: 0
Interface Courant Number mean: 0 max: 0
Selecting turbulence model type RAS
Selecting RAS turbulence model kEpsilon
RAS
{
    model           kEpsilon;
    turbulence      on;
    printCoeffs     on;
    Cmu             0.09;
    C1              1.44;
    C2              1.92;
    C3              0;
    sigmak          1;
    sigmaEps        1.3;
}

DICPCG:  Solving for pcorr, Initial residual = 0, Final residual = 0, No Iterations 0
Creating fvModels from "constant/fvModels"

Selecting finite volume model type VoFTurbulenceDamping
    Name: turbulenceDamping

PIMPLE: No convergence criteria found


PIMPLE: Operating solver in transient mode with 1 outer corrector
PIMPLE: Operating solver in PISO mode



Starting time loop

Courant Number mean: 0 max: 0
Interface Courant Number mean: 0 max: 0
deltaT = 0.00119048
Time = 0.00119048s

smoothSolver:  Solving for alpha.water, Initial residual = 0, Final residual = 0, No Iterations 0
Phase-1 volume fraction = 0.198834  Min(alpha.water) = 0  Max(alpha.water) = 1
MULES: Correcting alpha.water
MULES: Correcting alpha.water
Phase-1 volume fraction = 0.198834  Min(alpha.water) = 0  Max(alpha.water) = 1
DICPCG:  Solving for p_rgh, Initial residual = 1, Final residual = 0.0499902, No Iterations 6
time step continuity errors : sum local = 0.000889196, global = -9.01075e-05
DICPCG:  Solving for p_rgh, Initial residual = 0.00372184, Final residual = 0.000176783, No Iterations 27
time step continuity errors : sum local = 4.43233e-05, global = 2.57296e-06
DICPCG:  Solving for p_rgh, Initial residual = 0.000279167, Final residual = 9.90649e-08, No Iterations 52
time step continuity errors : sum local = 3.31437e-08, global = -1.67047e-09, cumulative = -1.67047e-09
smoothSolver:  Solving for epsilon, Initial residual = 0.89998, Final residual = 2.60552e-07, No Iterations 4
smoothSolver:  Solving for k, Initial residual = 1, Final residual = 2.57819e-07, No Iterations 4
ExecutionTime = 0.111607 s  ClockTime = 0 s

Courant Number mean: 0.00070581 max: 0.0051599
Interface Courant Number mean: 0 max: 0
deltaT = 0.00139456
Time = 0.00258503s

smoothSolver:  Solving for alpha.water, Initial residual = 3.04098e-05, Final residual = 2.36686e-11, No Iterations 1
Phase-1 volume fraction = 0.198834  Min(alpha.water) = 0  Max(alpha.water) = 1
MULES: Correcting alpha.water
MULES: Correcting alpha.water
Phase-1 volume fraction = 0.198834  Min(alpha.water) = -3.18122e-15  Max(alpha.water) = 1
DICPCG:  Solving for p_rgh, Initial residual = 0.000501548, Final residual = 2.11945e-05, No Iterations 5
time step continuity errors : sum local = 2.97824e-05, global = -1.83926e-06
DICPCG:  Solving for p_rgh, Initial residual = 2.79851e-05, Final residual = 1.37797e-06, No Iterations 31
time step continuity errors : sum local = 1.93562e-06, global = -3.21966e-07
DICPCG:  Solving for p_rgh, Initial residual = 5.2752e-06, Final residual = 9.68154e-08, No Iterations 37
time step continuity errors : sum local = 1.35947e-07, global = 3.21141e-08, cumulative = 3.04436e-08
smoothSolver:  Solving for epsilon, Initial residual = 0.842767, Final residual = 4.05074e-09, No Iterations 2
smoothSolver:  Solving for k, Initial residual = 0.116646, Final residual = 4.91556e-07, No Iterations 3
ExecutionTime = 0.123797 s  ClockTime = 0 s

Courant Number mean: 0.00205835 max: 0.0642895
Interface Courant Number mean: 0 max: 0
deltaT = 0.001635
Time = 0.00422003s

smoothSolver:  Solving for alpha.water, Initial residual = 0.000165686, Final residual = 5.50898e-09, No Iterations 1
Phase-1 volume fraction = 0.198834  Min(alpha.water) = 0  Max(alpha.water) = 1
MULES: Correcting alpha.water
MULES: Correcting alpha.water
Phase-1 volume fraction = 0.198834  Min(alpha.water) = -1.65044e-11  Max(alpha.water) = 1
DICPCG:  Solving for p_rgh, Initial residual = 0.00301559, Final residual = 6.56537e-05, No Iterations 2
time step continuity errors : sum local = 0.000111205, global = 1.65686e-07
DICPCG:  Solving for p_rgh, Initial residual = 8.3712e-05, Final residual = 3.72869e-06, No Iterations 29
time step continuity errors : sum local = 6.31404e-06, global = -8.57617e-08
DICPCG:  Solving for p_rgh, Initial residual = 1.30122e-05, Final residual = 9.05952e-08, No Iterations 25
time step continuity errors : sum local = 1.53475e-07, global = 7.77325e-08, cumulative = 1.08176e-07
smoothSolver:  Solving for epsilon, Initial residual = 0.11862, Final residual = 1.4725e-07, No Iterations 2
smoothSolver:  Solving for k, Initial residual = 0.0851294, Final residual = 6.30456e-07, No Iterations 3
ExecutionTime = 0.133294 s  ClockTime = 0 s

Courant Number mean: 0.00361804 max: 0.0456586
Interface Courant Number mean: 4.55395e-05 max: 0.0456586
deltaT = 0.0019075
Time = 0.00612753s

smoothSolver:  Solving for alpha.water, Initial residual = 0.000179453, Final residual = 9.64114e-09, No Iterations 1
Phase-1 volume fraction = 0.198834  Min(alpha.water) = 0  Max(alpha.water) = 1
MULES: Correcting alpha.water
MULES: Correcting alpha.water
Phase-1 volume fraction = 0.198834  Min(alpha.water) = -9.16605e-12  Max(alpha.water) = 1
DICPCG:  Solving for p_rgh, Initial residual = 0.00326121, Final residual = 5.61792e-05, No Iterations 2
time step continuity errors : sum local = 0.000116199, global = 1.38414e-07
DICPCG:  Solving for p_rgh, Initial residual = 6.20981e-05, Final residual = 2.82892e-06, No Iterations 14
time step continuity errors : sum local = 5.84423e-06, global = -1.79679e-06
DICPCG:  Solving for p_rgh, Initial residual = 9.81249e-06, Final residual = 7.85122e-08, No Iterations 36
time step continuity errors : sum local = 1.62311e-07, global = 5.24355e-09, cumulative = 1.1342e-07
smoothSolver:  Solving for epsilon, Initial residual = 0.582912, Final residual = 1.30632e-07, No Iterations 2
smoothSolver:  Solving for k, Initial residual = 0.0568242, Final residual = 1.31849e-07, No Iterations 4
ExecutionTime = 0.145745 s  ClockTime = 0 s

Courant Number mean: 0.00600866 max: 0.046254
Interface Courant Number mean: 0.000144614 max: 0.045495
deltaT = 0.00219362
Time = 0.00832115s

smoothSolver:  Solving for alpha.water, Initial residual = 0.000245842, Final residual = 1.73761e-13, No Iterations 2
Phase-1 volume fraction = 0.198834  Min(alpha.water) = 0  Max(alpha.water) = 1
MULES: Correcting alpha.water
MULES: Correcting alpha.water
Phase-1 volume fraction = 0.198834  Min(alpha.water) = -1.49675e-10  Max(alpha.water) = 1
DICPCG:  Solving for p_rgh, Initial residual = 0.00465516, Final residual = 0.000171939, No Iterations 1
time step continuity errors : sum local = 0.000430574, global = 6.66978e-07
DICPCG:  Solving for p_rgh, Initial residual = 0.000176831, Final residual = 8.29096e-06, No Iterations 9
time step continuity errors : sum local = 2.07111e-05, global = -2.00088e-06
DICPCG:  Solving for p_rgh, Initial residual = 1.69228e-05, Final residual = 9.75385e-08, No Iterations 37
time step continuity errors : sum local = 2.43807e-07, global = -1.57856e-08, cumulative = 9.76341e-08
smoothSolver:  Solving for epsilon, Initial residual = 0.0406739, Final residual = 7.32129e-07, No Iterations 2
smoothSolver:  Solving for k, Initial residual = 0.0436765, Final residual = 2.10142e-07, No Iterations 4
ExecutionTime = 0.157084 s  ClockTime = 0 s

Courant Number mean: 0.00933451 max: 0.0654779
Interface Courant Number mean: 0.000292252 max: 0.0654779
deltaT = 0.00260493
Time = 0.0109261s

smoothSolver:  Solving for alpha.water, Initial residual = 0.000365663, Final residual = 1.02535e-12, No Iterations 2
Phase-1 volume fraction = 0.198834  Min(alpha.water) = 0  Max(alpha.water) = 1
MULES: Correcting alpha.water
MULES: Correcting alpha.water
Phase-1 volume fraction = 0.198834  Min(alpha.water) = -1.14304e-09  Max(alpha.water) = 1
DICPCG:  Solving for p_rgh, Initial residual = 0.00728276, Final residual = 0.000204325, No Iterations 1
time step continuity errors : sum local = 0.00066755, global = 9.25375e-07
DICPCG:  Solving for p_rgh, Initial residual = 0.000211368, Final residual = 8.95434e-06, No Iterations 9
time step continuity errors : sum local = 2.91216e-05, global = -3.50074e-06
DICPCG:  Solving for p_rgh, Initial residual = 2.06037e-05, Final residual = 8.02572e-08, No Iterations 40
time step continuity errors : sum local = 2.61189e-07, global = -4.91339e-08, cumulative = 4.85002e-08
smoothSolver:  Solving for epsilon, Initial residual = 0.372466, Final residual = 8.99838e-08, No Iterations 3
smoothSolver:  Solving for k, Initial residual = 0.0439597, Final residual = 5.53363e-07, No Iterations 4
ExecutionTime = 0.166551 s  ClockTime = 0 s

Courant Number mean: 0.0145064 max: 0.102297
Interface Courant Number mean: 0.000506822 max: 0.102297
deltaT = 0.00300569
Time = 0.0139318s

smoothSolver:  Solving for alpha.water, Initial residual = 0.000527199, Final residual = 4.82753e-12, No Iterations 2
Phase-1 volume fraction = 0.198834  Min(alpha.water) = 0  Max(alpha.water) = 1
MULES: Correcting alpha.water
MULES: Correcting alpha.water
Phase-1 volume fraction = 0.198834  Min(alpha.water) = -4.94313e-09  Max(alpha.water) = 1
DICPCG:  Solving for p_rgh, Initial residual = 0.0110598, Final residual = 0.000241804, No Iterations 1
time step continuity errors : sum local = 0.000985146, global = 1.46067e-06
DICPCG:  Solving for p_rgh, Initial residual = 0.000250582, Final residual = 1.04407e-05, No Iterations 9
time step continuity errors : sum local = 4.22344e-05, global = -5.73496e-06
DICPCG:  Solving for p_rgh, Initial residual = 2.50303e-05, Final residual = 7.61438e-08, No Iterations 41
time step continuity errors : sum local = 3.08262e-07, global = -7.38295e-08, cumulative = -2.53293e-08
smoothSolver:  Solving for epsilon, Initial residual = 0.0743753, Final residual = 2.53887e-07, No Iterations 3
smoothSolver:  Solving for k, Initial residual = 0.0333333, Final residual = 8.23945e-07, No Iterations 4
ExecutionTime = 0.178197 s  ClockTime = 0 s

Courant Number mean: 0.021293 max: 0.152704
Interface Courant Number mean: 0.000813391 max: 0.152704
deltaT = 0.00360682
Time = 0.0175386s

smoothSolver:  Solving for alpha.water, Initial residual = 0.000776966, Final residual = 2.43468e-11, No Iterations 2
Phase-1 volume fraction = 0.198834  Min(alpha.water) = 0  Max(alpha.water) = 1
MULES: Correcting alpha.water
MULES: Correcting alpha.water
Phase-1 volume fraction = 0.198834  Min(alpha.water) = -2.96622e-08  Max(alpha.water) = 1
DICPCG:  Solving for p_rgh, Initial residual = 0.0171052, Final residual = 0.000286952, No Iterations 1
time step continuity errors : sum local = 0.00155764, global = 2.59875e-06
DICPCG:  Solving for p_rgh, Initial residual = 0.000299519, Final residual = 1.22176e-05, No Iterations 9
time step continuity errors : sum local = 6.55701e-05, global = -1.01895e-05
DICPCG:  Solving for p_rgh, Initial residual = 3.18596e-05, Final residual = 9.31691e-08, No Iterations 42
time step continuity errors : sum local = 5.00518e-07, global = -1.2048e-07, cumulative = -1.45809e-07
smoothSolver:  Solving for epsilon, Initial residual = 0.235527, Final residual = 4.67788e-07, No Iterations 3
smoothSolver:  Solving for k, Initial residual = 0.0388296, Final residual = 4.54984e-07, No Iterations 5
ExecutionTime = 0.189415 s  ClockTime = 0 s

Courant Number mean: 0.0321027 max: 0.232039
Interface Courant Number mean: 0.00135564 max: 0.232039
deltaT = 0.00405768
Time = 0.0215963s

smoothSolver:  Solving for alpha.water, Initial residual = 0.00106513, Final residual = 8.38199e-11, No Iterations 2
Phase-1 volume fraction = 0.198834  Min(alpha.water) = -3.21889e-13  Max(alpha.water) = 1
MULES: Correcting alpha.water
MULES: Correcting alpha.water
Phase-1 volume fraction = 0.198834  Min(alpha.water) = -1.09816e-08  Max(alpha.water) = 1
DICPCG:  Solving for p_rgh, Initial residual = 0.0245051, Final residual = 0.00031492, No Iterations 1
time step continuity errors : sum local = 0.00200531, global = 4.15792e-06
DICPCG:  Solving for p_rgh, Initial residual = 0.000332095, Final residual = 1.36381e-05, No Iterations 9
time step continuity errors : sum local = 8.53771e-05, global = -1.0222e-05
DICPCG:  Solving for p_rgh, Initial residual = 3.80489e-05, Final residual = 9.76742e-08, No Iterations 42
time step continuity errors : sum local = 6.12233e-07, global = -1.17752e-07, cumulative = -2.63561e-07
smoothSolver:  Solving for epsilon, Initial residual = 0.144991, Final residual = 8.79733e-07, No Iterations 3
smoothSolver:  Solving for k, Initial residual = 0.0237255, Final residual = 5.01248e-07, No Iterations 5
ExecutionTime = 0.199803 s  ClockTime = 0 s

Courant Number mean: 0.0442543 max: 0.298662
Interface Courant Number mean: 0.00213187 max: 0.298662
deltaT = 0.00473396
Time = 0.0263302s

smoothSolver:  Solving for alpha.water, Initial residual = 0.00149089, Final residual = 4.81971e-10, No Iterations 2
Phase-1 volume fraction = 0.198834  Min(alpha.water) = 0  Max(alpha.water) = 1
MULES: Correcting alpha.water
MULES: Correcting alpha.water
Phase-1 volume fraction = 0.198834  Min(alpha.water) = -8.10432e-08  Max(alpha.water) = 1
DICPCG:  Solving for p_rgh, Initial residual = 0.0361962, Final residual = 0.000368893, No Iterations 1
time step continuity errors : sum local = 0.00289391, global = 4.49134e-06
DICPCG:  Solving for p_rgh, Initial residual = 0.00039721, Final residual = 1.61318e-05, No Iterations 9
time step continuity errors : sum local = 0.00012327, global = -1.5332e-05
DICPCG:  Solving for p_rgh, Initial residual = 4.75014e-05, Final residual = 8.62653e-08, No Iterations 43
time step continuity errors : sum local = 6.60329e-07, global = -1.18379e-07, cumulative = -3.8194e-07
smoothSolver:  Solving for epsilon, Initial residual = 0.486475, Final residual = 9.41955e-07, No Iterations 3
smoothSolver:  Solving for k, Initial residual = 0.036827, Final residual = 4.36035e-07, No Iterations 6
ExecutionTime = 0.21246 s  ClockTime = 0 s

Courant Number mean: 0.0624442 max: 0.371205
Interface Courant Number mean: 0.00331543 max: 0.371205
deltaT = 0.00473396
Time = 0.0310642s

smoothSolver:  Solving for alpha.water, Initial residual = 0.00178757, Final residual = 4.05886e-14, No Iterations 3
Phase-1 volume fraction = 0.198834  Min(alpha.water) = 0  Max(alpha.water) = 1
MULES: Correcting alpha.water
MULES: Correcting alpha.water
Phase-1 volume fraction = 0.198834  Min(alpha.water) = -1.01447e-08  Max(alpha.water) = 1
DICPCG:  Solving for p_rgh, Initial residual = 0.0451961, Final residual = 0.000389116, No Iterations 1
time step continuity errors : sum local = 0.0028193, global = 4.79647e-06
DICPCG:  Solving for p_rgh, Initial residual = 0.000425823, Final residual = 1.86186e-05, No Iterations 9
time step continuity errors : sum local = 0.000130443, global = -1.42897e-05
DICPCG:  Solving for p_rgh, Initial residual = 5.16561e-05, Final residual = 9.11982e-08, No Iterations 27
time step continuity errors : sum local = 6.40444e-07, global = -1.52995e-07, cumulative = -5.34935e-07
smoothSolver:  Solving for epsilon, Initial residual = 0.213077, Final residual = 2.95557e-07, No Iterations 4
smoothSolver:  Solving for k, Initial residual = 0.0157897, Final residual = 5.96297e-07, No Iterations 5
ExecutionTime = 0.222825 s  ClockTime = 0 s

Courant Number mean: 0.0731631 max: 0.40285
Interface Courant Number mean: 0.00399645 max: 0.40285
deltaT = 0.00473396
Time = 0.0357981s

smoothSolver:  Solving for alpha.water, Initial residual = 0.00207621, Final residual = 7.35206e-14, No Iterations 3
Phase-1 volume fraction = 0.198834  Min(alpha.water) = 0  Max(alpha.water) = 1
MULES: Correcting alpha.water
MULES: Correcting alpha.water
Phase-1 volume fraction = 0.198834  Min(alpha.water) = -7.86266e-09  Max(alpha.water) = 1
DICPCG:  Solving for p_rgh, Initial residual = 0.055059, Final residual = 0.000423064, No Iterations 1
time step continuity errors : sum local = 0.00280617, global = 3.96347e-06
DICPCG:  Solving for p_rgh, Initial residual = 0.00046986, Final residual = 2.04903e-05, No Iterations 9
time step continuity errors : sum local = 0.000130426, global = -1.56073e-05
DICPCG:  Solving for p_rgh, Initial residual = 5.62209e-05, Final residual = 8.81463e-08, No Iterations 43
time step continuity errors : sum local = 5.62697e-07, global = -3.96862e-08, cumulative = -5.74621e-07
smoothSolver:  Solving for epsilon, Initial residual = 0.925544, Final residual = 8.7025e-07, No Iterations 2
smoothSolver:  Solving for k, Initial residual = 0.0317607, Final residual = 3.52483e-07, No Iterations 6
ExecutionTime = 0.233671 s  ClockTime = 0 s

Courant Number mean: 0.0837363 max: 0.468015
Interface Courant Number mean: 0.00479337 max: 0.466938
deltaT = 0.00473396
Time = 0.0405321s

smoothSolver:  Solving for alpha.water, Initial residual = 0.0023584, Final residual = 2.76314e-10, No Iterations 3
Phase-1 volume fraction = 0.198834  Min(alpha.water) = 0  Max(alpha.water) = 1
MULES: Correcting alpha.water
MULES: Correcting alpha.water
Phase-1 volume fraction = 0.198834  Min(alpha.water) = -5.12398e-09  Max(alpha.water) = 1
DICPCG:  Solving for p_rgh, Initial residual = 0.0636073, Final residual = 0.000496997, No Iterations 1
time step continuity errors : sum local = 0.00298402, global = 4.59389e-06
DICPCG:  Solving for p_rgh, Initial residual = 0.000556784, Final residual = 2.41447e-05, No Iterations 9
time step continuity errors : sum local = 0.000138467, global = -1.57971e-05
DICPCG:  Solving for p_rgh, Initial residual = 6.62915e-05, Final residual = 8.29629e-08, No Iterations 43
time step continuity errors : sum local = 4.77549e-07, global = -1.66918e-08, cumulative = -5.91313e-07
smoothSolver:  Solving for epsilon, Initial residual = 0.224965, Final residual = 3.08239e-07, No Iterations 4
smoothSolver:  Solving for k, Initial residual = 0.012639, Final residual = 3.89919e-07, No Iterations 5
ExecutionTime = 0.246858 s  ClockTime = 0 s

Courant Number mean: 0.0941858 max: 0.512297
Interface Courant Number mean: 0.00637718 max: 0.512297
deltaT = 0.00473396
Time = 0.045266s

smoothSolver:  Solving for alpha.water, Initial residual = 0.0026335, Final residual = 1.37029e-09, No Iterations 3
Phase-1 volume fraction = 0.198834  Min(alpha.water) = 0  Max(alpha.water) = 1
MULES: Correcting alpha.water
MULES: Correcting alpha.water
Phase-1 volume fraction = 0.198834  Min(alpha.water) = -3.82661e-09  Max(alpha.water) = 1
DICPCG:  Solving for p_rgh, Initial residual = 0.0699688, Final residual = 0.000604943, No Iterations 1
time step continuity errors : sum local = 0.00328197, global = 4.39593e-06
DICPCG:  Solving for p_rgh, Initial residual = 0.000683867, Final residual = 2.97333e-05, No Iterations 9
time step continuity errors : sum local = 0.000153411, global = -1.70963e-05
DICPCG:  Solving for p_rgh, Initial residual = 8.22675e-05, Final residual = 8.7722e-08, No Iterations 43
time step continuity errors : sum local = 4.54778e-07, global = 4.77852e-09, cumulative = -5.86534e-07
smoothSolver:  Solving for epsilon, Initial residual = 0.951287, Final residual = 5.65834e-07, No Iterations 2
smoothSolver:  Solving for k, Initial residual = 0.0284708, Final residual = 2.75347e-07, No Iterations 6
ExecutionTime = 0.257983 s  ClockTime = 0 s

Courant Number mean: 0.104529 max: 0.559321
Interface Courant Number mean: 0.00739732 max: 0.559321
deltaT = 0.00473396
Time = 0.05s

smoothSolver:  Solving for alpha.water, Initial residual = 0.00290124, Final residual = 3.123e-09, No Iterations 3
Phase-1 volume fraction = 0.198834  Min(alpha.water) = 0  Max(alpha.water) = 1
MULES: Correcting alpha.water
MULES: Correcting alpha.water
Phase-1 volume fraction = 0.198834  Min(alpha.water) = -2.3115e-08  Max(alpha.water) = 1
DICPCG:  Solving for p_rgh, Initial residual = 0.0727552, Final residual = 0.000773925, No Iterations 1
time step continuity errors : sum local = 0.00375412, global = 4.64228e-06
DICPCG:  Solving for p_rgh, Initial residual = 0.0008702, Final residual = 3.58867e-05, No Iterations 9
time step continuity errors : sum local = 0.000165534, global = -1.82413e-05
DICPCG:  Solving for p_rgh, Initial residual = 0.000105598, Final residual = 6.85496e-08, No Iterations 44
time step continuity errors : sum local = 3.1802e-07, global = 1.98748e-08, cumulative = -5.6666e-07
smoothSolver:  Solving for epsilon, Initial residual = 0.200515, Final residual = 2.89804e-07, No Iterations 4
smoothSolver:  Solving for k, Initial residual = 0.0112664, Final residual = 3.44377e-07, No Iterations 5
ExecutionTime = 0.283052 s  ClockTime = 0 s

Courant Number mean: 0.11489 max: 0.608166
Interface Courant Number mean: 0.00846049 max: 0.608166
deltaT = 0.00555556
Time = 0.0555556s

smoothSolver:  Solving for alpha.water, Initial residual = 0.00372553, Final residual = 9.28568e-11, No Iterations 4
Phase-1 volume fraction = 0.198834  Min(alpha.water) = 0  Max(alpha.water) = 1
MULES: Correcting alpha.water
MULES: Correcting alpha.water
Phase-1 volume fraction = 0.198834  Min(alpha.water) = -8.40768e-07  Max(alpha.water) = 1
DICPCG:  Solving for p_rgh, Initial residual = 0.0840229, Final residual = 0.00122636, No Iterations 1
time step continuity errors : sum local = 0.00688001, global = 7.0456e-06
DICPCG:  Solving for p_rgh, Initial residual = 0.0013982, Final residual = 6.41559e-05, No Iterations 8
time step continuity errors : sum local = 0.000340322, global = -2.1278e-05
DICPCG:  Solving for p_rgh, Initial residual = 0.000195272, Final residual = 9.0512e-08, No Iterations 49
time step continuity errors : sum local = 4.83558e-07, global = 4.55529e-08, cumulative = -5.21107e-07
smoothSolver:  Solving for epsilon, Initial residual = 0.939789, Final residual = 1.41468e-07, No Iterations 3
smoothSolver:  Solving for k, Initial residual = 0.029118, Final residual = 6.24295e-07, No Iterations 6
ExecutionTime = 0.296208 s  ClockTime = 0 s

Courant Number mean: 0.149021 max: 0.772248
Interface Courant Number mean: 0.0112792 max: 0.772248
deltaT = 0.00634921
Time = 0.0619048s

smoothSolver:  Solving for alpha.water, Initial residual = 0.00470847, Final residual = 6.60044e-10, No Iterations 4
Phase-1 volume fraction = 0.198834  Min(alpha.water) = 0  Max(alpha.water) = 1
MULES: Correcting alpha.water
MULES: Correcting alpha.water
Phase-1 volume fraction = 0.198834  Min(alpha.water) = -1.48621e-06  Max(alpha.water) = 1.0003
DICPCG:  Solving for p_rgh, Initial residual = 0.0826226, Final residual = 0.00210431, No Iterations 1
time step continuity errors : sum local = 0.0129044, global = 4.96863e-06
DICPCG:  Solving for p_rgh, Initial residual = 0.00239769, Final residual = 0.000100904, No Iterations 8
time step continuity errors : sum local = 0.000589873, global = -2.09299e-05
DICPCG:  Solving for p_rgh, Initial residual = 0.000352157, Final residual = 8.12871e-08, No Iterations 45
time step continuity errors : sum local = 4.79321e-07, global = 2.7251e-08, cumulative = -4.93856e-07
smoothSolver:  Solving for epsilon, Initial residual = 0.261129, Final residual = 3.42854e-07, No Iterations 5
smoothSolver:  Solving for k, Initial residual = 0.0111748, Final residual = 3.96975e-07, No Iterations 6
ExecutionTime = 0.307457 s  ClockTime = 0 s

Courant Number mean: 0.188718 max: 0.94852
Interface Courant Number mean: 0.0153495 max: 0.94852
deltaT = 0.00634921
Time = 0.068254s

smoothSolver:  Solving for alpha.water, Initial residual = 0.00520186, Final residual = 2.70097e-09, No Iterations 4
Phase-1 volume fraction = 0.198834  Min(alpha.water) = 0  Max(alpha.water) = 1
MULES: Correcting alpha.water
MULES: Correcting alpha.water
Phase-1 volume fraction = 0.198834  Min(alpha.water) = -1.433e-06  Max(alpha.water) = 1.00028
DICPCG:  Solving for p_rgh, Initial residual = 0.0591684, Final residual = 0.00235598, No Iterations 1
time step continuity errors : sum local = 0.0139615, global = -3.12781e-06
DICPCG:  Solving for p_rgh, Initial residual = 0.00268362, Final residual = 0.000130238, No Iterations 7
time step continuity errors : sum local = 0.000761775, global = 0.000106019
DICPCG:  Solving for p_rgh, Initial residual = 0.000412009, Final residual = 9.8968e-08, No Iterations 49
time step continuity errors : sum local = 5.82574e-07, global = -1.7206e-08, cumulative = -5.11062e-07
smoothSolver:  Solving for epsilon, Initial residual = 0.9673, Final residual = 8.99203e-07, No Iterations 2
smoothSolver:  Solving for k, Initial residual = 0.0331957, Final residual = 4.58899e-07, No Iterations 7
ExecutionTime = 0.318723 s  ClockTime = 0 s

Courant Number mean: 0.206715 max: 1.109
Interface Courant Number mean: 0.0176706 max: 1.00023
deltaT = 0.00529101
Time = 0.073545s

smoothSolver:  Solving for alpha.water, Initial residual = 0.00471523, Final residual = 2.03008e-09, No Iterations 4
Phase-1 volume fraction = 0.198834  Min(alpha.water) = -6.00317e-07  Max(alpha.water) = 1
MULES: Correcting alpha.water
MULES: Correcting alpha.water
Phase-1 volume fraction = 0.198834  Min(alpha.water) = -6.67355e-07  Max(alpha.water) = 1
DICPCG:  Solving for p_rgh, Initial residual = 0.100675, Final residual = 0.000900544, No Iterations 1
time step continuity errors : sum local = 0.00559661, global = -3.31634e-05
DICPCG:  Solving for p_rgh, Initial residual = 0.00108772, Final residual = 5.36548e-05, No Iterations 7
time step continuity errors : sum local = 0.000306538, global = 3.60977e-05
DICPCG:  Solving for p_rgh, Initial residual = 0.000167012, Final residual = 8.07169e-08, No Iterations 49
time step continuity errors : sum local = 4.63139e-07, global = 5.55274e-08, cumulative = -4.55534e-07
smoothSolver:  Solving for epsilon, Initial residual = 0.221153, Final residual = 7.1891e-07, No Iterations 4
smoothSolver:  Solving for k, Initial residual = 0.0134249, Final residual = 7.53319e-07, No Iterations 5
ExecutionTime = 0.332063 s  ClockTime = 0 s

Courant Number mean: 0.184668 max: 1.0828
Interface Courant Number mean: 0.015975 max: 0.886507
deltaT = 0.00440917
Time = 0.0779541s

smoothSolver:  Solving for alpha.water, Initial residual = 0.004219, Final residual = 8.39868e-10, No Iterations 4
Phase-1 volume fraction = 0.198834  Min(alpha.water) = -4.90105e-07  Max(alpha.water) = 1
MULES: Correcting alpha.water
MULES: Correcting alpha.water
Phase-1 volume fraction = 0.198834  Min(alpha.water) = -4.90105e-07  Max(alpha.water) = 1
DICPCG:  Solving for p_rgh, Initial residual = 0.07852, Final residual = 0.00107201, No Iterations 1
time step continuity errors : sum local = 0.00430258, global = -7.96385e-06
DICPCG:  Solving for p_rgh, Initial residual = 0.00122852, Final residual = 5.87345e-05, No Iterations 8
time step continuity errors : sum local = 0.00022161, global = 1.70467e-06
DICPCG:  Solving for p_rgh, Initial residual = 0.000172915, Final residual = 9.14627e-08, No Iterations 46
time step continuity errors : sum local = 3.47163e-07, global = -1.66347e-08, cumulative = -4.72169e-07
smoothSolver:  Solving for epsilon, Initial residual = 0.900668, Final residual = 8.81321e-07, No Iterations 2
smoothSolver:  Solving for k, Initial residual = 0.0231156, Final residual = 7.07462e-07, No Iterations 5
ExecutionTime = 0.345151 s  ClockTime = 0 s

Courant Number mean: 0.162515 max: 1.0251
Interface Courant Number mean: 0.0143144 max: 0.784959
deltaT = 0.00367431
Time = 0.0816285s

smoothSolver:  Solving for alpha.water, Initial residual = 0.00372933, Final residual = 3.00996e-10, No Iterations 4
Phase-1 volume fraction = 0.198834  Min(alpha.water) = -4.0988e-07  Max(alpha.water) = 1
MULES: Correcting alpha.water
MULES: Correcting alpha.water
Phase-1 volume fraction = 0.198834  Min(alpha.water) = -4.0988e-07  Max(alpha.water) = 1
DICPCG:  Solving for p_rgh, Initial residual = 0.0543506, Final residual = 0.00130005, No Iterations 1
time step continuity errors : sum local = 0.00350317, global = -2.94809e-06
DICPCG:  Solving for p_rgh, Initial residual = 0.00143485, Final residual = 6.98214e-05, No Iterations 8
time step continuity errors : sum local = 0.000181163, global = -4.6837e-06
DICPCG:  Solving for p_rgh, Initial residual = 0.000177702, Final residual = 9.92182e-08, No Iterations 44
time step continuity errors : sum local = 2.59138e-07, global = -1.91802e-08, cumulative = -4.91349e-07
smoothSolver:  Solving for epsilon, Initial residual = 0.148193, Final residual = 1.73295e-07, No Iterations 4
smoothSolver:  Solving for k, Initial residual = 0.0120142, Final residual = 7.74496e-07, No Iterations 4
ExecutionTime = 0.357193 s  ClockTime = 0 s

Courant Number mean: 0.141524 max: 0.953154
Interface Courant Number mean: 0.0124539 max: 0.67923
deltaT = 0.00367431
Time = 0.0853028s

smoothSolver:  Solving for alpha.water, Initial residual = 0.0039154, Final residual = 3.50047e-10, No Iterations 4
Phase-1 volume fraction = 0.198834  Min(alpha.water) = -3.40464e-07  Max(alpha.water) = 1
MULES: Correcting alpha.water
MULES: Correcting alpha.water
Phase-1 volume fraction = 0.198834  Min(alpha.water) = -3.40464e-07  Max(alpha.water) = 1
DICPCG:  Solving for p_rgh, Initial residual = 0.046556, Final residual = 0.00180917, No Iterations 1
time step continuity errors : sum local = 0.00468648, global = -2.72877e-07
DICPCG:  Solving for p_rgh, Initial residual = 0.00201617, Final residual = 8.47279e-05, No Iterations 8
time step continuity errors : sum local = 0.000214012, global = 8.74766e-06
DICPCG:  Solving for p_rgh, Initial residual = 0.000238495, Final residual = 8.20151e-08, No Iterations 50
time step continuity errors : sum local = 2.08446e-07, global = 1.59384e-08, cumulative = -4.75411e-07
smoothSolver:  Solving for epsilon, Initial residual = 0.746792, Final residual = 2.14301e-07, No Iterations 3
smoothSolver:  Solving for k, Initial residual = 0.0190712, Final residual = 2.71174e-07, No Iterations 5
ExecutionTime = 0.367007 s  ClockTime = 0 s

Courant Number mean: 0.147661 max: 1.08274
Interface Courant Number mean: 0.0129811 max: 0.696086
deltaT = 0.00293945
Time = 0.0882422s

smoothSolver:  Solving for alpha.water, Initial residual = 0.00327918, Final residual = 8.90138e-09, No Iterations 3
Phase-1 volume fraction = 0.198834  Min(alpha.water) = -2.91193e-07  Max(alpha.water) = 1
MULES: Correcting alpha.water
MULES: Correcting alpha.water
Phase-1 volume fraction = 0.198834  Min(alpha.water) = -2.91193e-07  Max(alpha.water) = 1
DICPCG:  Solving for p_rgh, Initial residual = 0.032825, Final residual = 0.000987617, No Iterations 1
time step continuity errors : sum local = 0.00192502, global = -3.42723e-06
DICPCG:  Solving for p_rgh, Initial residual = 0.0010943, Final residual = 5.38944e-05, No Iterations 8
time step continuity errors : sum local = 0.000103087, global = 3.72224e-06
DICPCG:  Solving for p_rgh, Initial residual = 0.000132891, Final residual = 7.38702e-08, No Iterations 43
time step continuity errors : sum local = 1.41961e-07, global = -1.75185e-08, cumulative = -4.92929e-07
smoothSolver:  Solving for epsilon, Initial residual = 0.10739, Final residual = 6.03834e-07, No Iterations 3
smoothSolver:  Solving for k, Initial residual = 0.0118432, Final residual = 3.12507e-07, No Iterations 4
ExecutionTime = 0.379193 s  ClockTime = 0 s

Courant Number mean: 0.122075 max: 0.975042
Interface Courant Number mean: 0.0101424 max: 0.562454
deltaT = 0.00293945
Time = 0.0911817s

smoothSolver:  Solving for alpha.water, Initial residual = 0.00338152, Final residual = 9.5489e-09, No Iterations 3
Phase-1 volume fraction = 0.198834  Min(alpha.water) = -2.47941e-07  Max(alpha.water) = 1
MULES: Correcting alpha.water
MULES: Correcting alpha.water
Phase-1 volume fraction = 0.198834  Min(alpha.water) = -2.4794e-07  Max(alpha.water) = 1
DICPCG:  Solving for p_rgh, Initial residual = 0.0621559, Final residual = 0.000638798, No Iterations 1
time step continuity errors : sum local = 0.00147386, global = -1.56976e-06
DICPCG:  Solving for p_rgh, Initial residual = 0.00072553, Final residual = 3.50295e-05, No Iterations 9
time step continuity errors : sum local = 7.66474e-05, global = -5.34374e-06
DICPCG:  Solving for p_rgh, Initial residual = 8.95259e-05, Final residual = 9.12075e-08, No Iterations 44
time step continuity errors : sum local = 2.00591e-07, global = -1.10843e-08, cumulative = -5.04014e-07
smoothSolver:  Solving for epsilon, Initial residual = 0.459369, Final residual = 2.5534e-07, No Iterations 3
smoothSolver:  Solving for k, Initial residual = 0.0154721, Final residual = 4.41837e-07, No Iterations 4
ExecutionTime = 0.390793 s  ClockTime = 0 s

Courant Number mean: 0.126009 max: 1.10052
Interface Courant Number mean: 0.0105337 max: 0.576873
deltaT = 0.00220459
Time = 0.0933862s

smoothSolver:  Solving for alpha.water, Initial residual = 0.00263205, Final residual = 2.05745e-09, No Iterations 3
Phase-1 volume fraction = 0.198834  Min(alpha.water) = -2.18476e-07  Max(alpha.water) = 1
MULES: Correcting alpha.water
MULES: Correcting alpha.water
Phase-1 volume fraction = 0.198834  Min(alpha.water) = -2.18475e-07  Max(alpha.water) = 1
DICPCG:  Solving for p_rgh, Initial residual = 0.0430819, Final residual = 0.000608601, No Iterations 1
time step continuity errors : sum local = 0.000785155, global = 3.6392e-07
DICPCG:  Solving for p_rgh, Initial residual = 0.000667509, Final residual = 2.9535e-05, No Iterations 10
time step continuity errors : sum local = 3.68077e-05, global = -2.79011e-06
DICPCG:  Solving for p_rgh, Initial residual = 7.1344e-05, Final residual = 8.8353e-08, No Iterations 45
time step continuity errors : sum local = 1.1073e-07, global = -3.12291e-09, cumulative = -5.07137e-07
smoothSolver:  Solving for epsilon, Initial residual = 0.0812187, Final residual = 1.82795e-07, No Iterations 3
smoothSolver:  Solving for k, Initial residual = 0.0101553, Final residual = 7.0678e-07, No Iterations 3
ExecutionTime = 0.400844 s  ClockTime = 0 s

Courant Number mean: 0.0966712 max: 0.88693
Interface Courant Number mean: 0.00841449 max: 0.476599
deltaT = 0.00220459
Time = 0.0955908s

smoothSolver:  Solving for alpha.water, Initial residual = 0.00271282, Final residual = 2.11067e-09, No Iterations 3
Phase-1 volume fraction = 0.198834  Min(alpha.water) = -1.9199e-07  Max(alpha.water) = 1
MULES: Correcting alpha.water
MULES: Correcting alpha.water
Phase-1 volume fraction = 0.198834  Min(alpha.water) = -1.91989e-07  Max(alpha.water) = 1.00001
DICPCG:  Solving for p_rgh, Initial residual = 0.0383015, Final residual = 0.000775847, No Iterations 1
time step continuity errors : sum local = 0.000938737, global = 6.90801e-07
DICPCG:  Solving for p_rgh, Initial residual = 0.000843263, Final residual = 4.07734e-05, No Iterations 9
time step continuity errors : sum local = 4.79312e-05, global = -5.21033e-06
DICPCG:  Solving for p_rgh, Initial residual = 8.91815e-05, Final residual = 8.86636e-08, No Iterations 45
time step continuity errors : sum local = 1.04751e-07, global = -1.87352e-09, cumulative = -5.0901e-07
smoothSolver:  Solving for epsilon, Initial residual = 0.188832, Final residual = 1.44658e-07, No Iterations 3
smoothSolver:  Solving for k, Initial residual = 0.0116751, Final residual = 8.44342e-07, No Iterations 3
ExecutionTime = 0.413365 s  ClockTime = 0 s

Courant Number mean: 0.0989209 max: 0.953075
Interface Courant Number mean: 0.00843253 max: 0.480233
deltaT = 0.00220459
Time = 0.0977954s

smoothSolver:  Solving for alpha.water, Initial residual = 0.00279071, Final residual = 2.29241e-09, No Iterations 3
Phase-1 volume fraction = 0.198834  Min(alpha.water) = -1.68261e-07  Max(alpha.water) = 1
MULES: Correcting alpha.water
MULES: Correcting alpha.water
Phase-1 volume fraction = 0.198834  Min(alpha.water) = -1.6826e-07  Max(alpha.water) = 1.00001
DICPCG:  Solving for p_rgh, Initial residual = 0.0366025, Final residual = 0.00115078, No Iterations 1
time step continuity errors : sum local = 0.00134593, global = 1.13185e-06
DICPCG:  Solving for p_rgh, Initial residual = 0.00124957, Final residual = 5.35793e-05, No Iterations 9
time step continuity errors : sum local = 6.10078e-05, global = -3.14895e-06
DICPCG:  Solving for p_rgh, Initial residual = 0.000126346, Final residual = 9.43793e-08, No Iterations 44
time step continuity errors : sum local = 1.07959e-07, global = 6.07976e-09, cumulative = -5.0293e-07
smoothSolver:  Solving for epsilon, Initial residual = 0.0622199, Final residual = 2.29869e-07, No Iterations 3
smoothSolver:  Solving for k, Initial residual = 0.0106295, Final residual = 7.91833e-07, No Iterations 3
ExecutionTime = 0.425036 s  ClockTime = 0 s

Courant Number mean: 0.101204 max: 1.0114
Interface Courant Number mean: 0.00819974 max: 0.483336
deltaT = 0.00110229
Time = 0.0988977s

smoothSolver:  Solving for alpha.water, Initial residual = 0.0014302, Final residual = 4.17075e-11, No Iterations 3
Phase-1 volume fraction = 0.198834  Min(alpha.water) = -1.56969e-07  Max(alpha.water) = 1
MULES: Correcting alpha.water
MULES: Correcting alpha.water
Phase-1 volume fraction = 0.198834  Min(alpha.water) = -1.56969e-07  Max(alpha.water) = 1
DICPCG:  Solving for p_rgh, Initial residual = 0.0165214, Final residual = 0.000643471, No Iterations 1
time step continuity errors : sum local = 0.000216666, global = -1.51811e-09
DICPCG:  Solving for p_rgh, Initial residual = 0.00067472, Final residual = 3.27889e-05, No Iterations 10
time step continuity errors : sum local = 1.09271e-05, global = -1.27733e-06
DICPCG:  Solving for p_rgh, Initial residual = 5.17311e-05, Final residual = 8.97354e-08, No Iterations 40
time step continuity errors : sum local = 3.00397e-08, global = 1.03025e-09, cumulative = -5.019e-07
smoothSolver:  Solving for epsilon, Initial residual = 0.063076, Final residual = 2.1637e-07, No Iterations 2
smoothSolver:  Solving for k, Initial residual = 0.00623368, Final residual = 6.93737e-07, No Iterations 2
ExecutionTime = 0.434272 s  ClockTime = 0 s

Courant Number mean: 0.0511651 max: 0.519147
Interface Courant Number mean: 0.00425005 max: 0.39992
deltaT = 0.00110229
Time = 0.1s

smoothSolver:  Solving for alpha.water, Initial residual = 0.00144588, Final residual = 4.03954e-11, No Iterations 3
Phase-1 volume fraction = 0.198834  Min(alpha.water) = -1.4633e-07  Max(alpha.water) = 1
MULES: Correcting alpha.water
MULES: Correcting alpha.water
Phase-1 volume fraction = 0.198834  Min(alpha.water) = -1.4633e-07  Max(alpha.water) = 1
DICPCG:  Solving for p_rgh, Initial residual = 0.0163457, Final residual = 0.000646166, No Iterations 1
time step continuity errors : sum local = 0.000220417, global = 1.72979e-07
DICPCG:  Solving for p_rgh, Initial residual = 0.000676721, Final residual = 3.28737e-05, No Iterations 6
time step continuity errors : sum local = 1.11146e-05, global = 3.59387e-06
DICPCG:  Solving for p_rgh, Initial residual = 5.27094e-05, Final residual = 9.49049e-08, No Iterations 34
time step continuity errors : sum local = 3.211e-08, global = -1.16129e-08, cumulative = -5.13513e-07
smoothSolver:  Solving for epsilon, Initial residual = 0.0263709, Final residual = 2.52808e-07, No Iterations 2
smoothSolver:  Solving for k, Initial residual = 0.00617356, Final residual = 6.98108e-07, No Iterations 2
ExecutionTime = 0.460495 s  ClockTime = 1 s

Courant Number mean: 0.051737 max: 0.533361
Interface Courant Number mean: 0.00409285 max: 0.400416
deltaT = 0.00131579
Time = 0.101316s

smoothSolver:  Solving for alpha.water, Initial residual = 0.00174968, Final residual = 1.17796e-10, No Iterations 3
Phase-1 volume fraction = 0.198834  Min(alpha.water) = -1.34533e-07  Max(alpha.water) = 1
MULES: Correcting alpha.water
MULES: Correcting alpha.water
Phase-1 volume fraction = 0.198834  Min(alpha.water) = -4.17184e-07  Max(alpha.water) = 1
DICPCG:  Solving for p_rgh, Initial residual = 0.0189132, Final residual = 0.0006514, No Iterations 1
time step continuity errors : sum local = 0.000319169, global = -6.31646e-07
DICPCG:  Solving for p_rgh, Initial residual = 0.000692891, Final residual = 3.13695e-05, No Iterations 5
time step continuity errors : sum local = 1.52313e-05, global = 3.12614e-06
DICPCG:  Solving for p_rgh, Initial residual = 5.71954e-05, Final residual = 7.02924e-08, No Iterations 47
time step continuity errors : sum local = 3.41336e-08, global = 3.03669e-09, cumulative = -5.10476e-07
smoothSolver:  Solving for epsilon, Initial residual = 0.0205797, Final residual = 5.6176e-07, No Iterations 2
smoothSolver:  Solving for k, Initial residual = 0.00740103, Final residual = 6.36539e-08, No Iterations 3
ExecutionTime = 0.46995 s  ClockTime = 1 s

Courant Number mean: 0.0625687 max: 0.655692
Interface Courant Number mean: 0.00501264 max: 0.558549
deltaT = 0.00157046
Time = 0.102886s

smoothSolver:  Solving for alpha.water, Initial residual = 0.00212183, Final residual = 3.52749e-10, No Iterations 3
Phase-1 volume fraction = 0.198834  Min(alpha.water) = -1.21633e-07  Max(alpha.water) = 1
MULES: Correcting alpha.water
MULES: Correcting alpha.water
Phase-1 volume fraction = 0.198834  Min(alpha.water) = -9.77806e-07  Max(alpha.water) = 1
DICPCG:  Solving for p_rgh, Initial residual = 0.0343968, Final residual = 0.000412888, No Iterations 1
time step continuity errors : sum local = 0.000335617, global = -6.25901e-07
DICPCG:  Solving for p_rgh, Initial residual = 0.00045483, Final residual = 1.99102e-05, No Iterations 6
time step continuity errors : sum local = 1.57222e-05, global = 3.14061e-06
DICPCG:  Solving for p_rgh, Initial residual = 4.38767e-05, Final residual = 8.62423e-08, No Iterations 44
time step continuity errors : sum local = 6.81482e-08, global = -6.06456e-09, cumulative = -5.16541e-07
smoothSolver:  Solving for epsilon, Initial residual = 0.0271876, Final residual = 4.64085e-08, No Iterations 3
smoothSolver:  Solving for k, Initial residual = 0.00872473, Final residual = 1.67085e-07, No Iterations 3
ExecutionTime = 0.48215 s  ClockTime = 1 s

Courant Number mean: 0.0758375 max: 0.805889
Interface Courant Number mean: 0.00660688 max: 0.657872
deltaT = 0.00188455
Time = 0.104771s

smoothSolver:  Solving for alpha.water, Initial residual = 0.00257915, Final residual = 1.14739e-09, No Iterations 3
Phase-1 volume fraction = 0.198834  Min(alpha.water) = -1.07706e-07  Max(alpha.water) = 1
MULES: Correcting alpha.water
MULES: Correcting alpha.water
Phase-1 volume fraction = 0.198834  Min(alpha.water) = -2.05374e-06  Max(alpha.water) = 1
DICPCG:  Solving for p_rgh, Initial residual = 0.043434, Final residual = 0.000453777, No Iterations 1
time step continuity errors : sum local = 0.000493992, global = -5.22342e-07
DICPCG:  Solving for p_rgh, Initial residual = 0.00050588, Final residual = 2.48005e-05, No Iterations 9
time step continuity errors : sum local = 2.60081e-05, global = 1.21675e-07
DICPCG:  Solving for p_rgh, Initial residual = 5.27257e-05, Final residual = 9.73165e-08, No Iterations 29
time step continuity errors : sum local = 1.02362e-07, global = -4.0864e-08, cumulative = -5.57405e-07
smoothSolver:  Solving for epsilon, Initial residual = 0.0289593, Final residual = 1.32825e-07, No Iterations 3
smoothSolver:  Solving for k, Initial residual = 0.0104449, Final residual = 4.41694e-07, No Iterations 3
ExecutionTime = 0.494419 s  ClockTime = 1 s

Courant Number mean: 0.0926699 max: 0.994974
Interface Courant Number mean: 0.00810676 max: 0.870184
deltaT = 0.00188455
Time = 0.106655s

smoothSolver:  Solving for alpha.water, Initial residual = 0.00262889, Final residual = 1.31051e-09, No Iterations 3
Phase-1 volume fraction = 0.198834  Min(alpha.water) = -1.00966e-07  Max(alpha.water) = 1
MULES: Correcting alpha.water
MULES: Correcting alpha.water
Phase-1 volume fraction = 0.198834  Min(alpha.water) = -2.29678e-06  Max(alpha.water) = 1.00002
DICPCG:  Solving for p_rgh, Initial residual = 0.0410259, Final residual = 0.00054581, No Iterations 1
time step continuity errors : sum local = 0.000551881, global = 8.80596e-08
DICPCG:  Solving for p_rgh, Initial residual = 0.000603329, Final residual = 2.79518e-05, No Iterations 9
time step continuity errors : sum local = 2.73077e-05, global = -8.72877e-07
DICPCG:  Solving for p_rgh, Initial residual = 6.1974e-05, Final residual = 8.31165e-08, No Iterations 42
time step continuity errors : sum local = 8.15458e-08, global = -5.07554e-09, cumulative = -5.6248e-07
smoothSolver:  Solving for epsilon, Initial residual = 0.0292638, Final residual = 1.41783e-07, No Iterations 3
smoothSolver:  Solving for k, Initial residual = 0.0105382, Final residual = 4.52368e-07, No Iterations 3
ExecutionTime = 0.504819 s  ClockTime = 1 s

Courant Number mean: 0.0943115 max: 1.01835
Interface Courant Number mean: 0.00821175 max: 0.871173
deltaT = 0.00180603
Time = 0.108461s

smoothSolver:  Solving for alpha.water, Initial residual = 0.00258731, Final residual = 1.13589e-09, No Iterations 3
Phase-1 volume fraction = 0.198834  Min(alpha.water) = -9.89425e-08  Max(alpha.water) = 1
MULES: Correcting alpha.water
MULES: Correcting alpha.water
Phase-1 volume fraction = 0.198834  Min(alpha.water) = -2.32534e-06  Max(alpha.water) = 1
DICPCG:  Solving for p_rgh, Initial residual = 0.0355136, Final residual = 0.000657901, No Iterations 1
time step continuity errors : sum local = 0.000578033, global = 2.48688e-07
DICPCG:  Solving for p_rgh, Initial residual = 0.000718057, Final residual = 2.85866e-05, No Iterations 10
time step continuity errors : sum local = 2.44094e-05, global = -4.01715e-06
DICPCG:  Solving for p_rgh, Initial residual = 6.85619e-05, Final residual = 9.58074e-08, No Iterations 42
time step continuity errors : sum local = 8.22021e-08, global = -8.07085e-09, cumulative = -5.70551e-07
smoothSolver:  Solving for epsilon, Initial residual = 0.0292097, Final residual = 1.19109e-07, No Iterations 3
smoothSolver:  Solving for k, Initial residual = 0.0103423, Final residual = 3.75382e-07, No Iterations 3
ExecutionTime = 0.516089 s  ClockTime = 1 s

Courant Number mean: 0.091965 max: 0.99409
Interface Courant Number mean: 0.0079718 max: 0.841842
deltaT = 0.00180603
Time = 0.110267s

smoothSolver:  Solving for alpha.water, Initial residual = 0.00264407, Final residual = 1.20822e-09, No Iterations 3
Phase-1 volume fraction = 0.198834  Min(alpha.water) = -9.59802e-08  Max(alpha.water) = 1
MULES: Correcting alpha.water
MULES: Correcting alpha.water
Phase-1 volume fraction = 0.198834  Min(alpha.water) = -1.75561e-07  Max(alpha.water) = 1.00001
DICPCG:  Solving for p_rgh, Initial residual = 0.0344106, Final residual = 0.000994612, No Iterations 1
time step continuity errors : sum local = 0.0008413, global = 9.84697e-07
DICPCG:  Solving for p_rgh, Initial residual = 0.00108078, Final residual = 5.24018e-05, No Iterations 6
time step continuity errors : sum local = 4.31143e-05, global = 1.07516e-05
DICPCG:  Solving for p_rgh, Initial residual = 0.000108718, Final residual = 9.49333e-08, No Iterations 47
time step continuity errors : sum local = 7.82314e-08, global = 6.86303e-09, cumulative = -5.63688e-07
smoothSolver:  Solving for epsilon, Initial residual = 0.0340899, Final residual = 1.29147e-07, No Iterations 3
smoothSolver:  Solving for k, Initial residual = 0.0104621, Final residual = 3.8337e-07, No Iterations 3
ExecutionTime = 0.528818 s  ClockTime = 1 s

Courant Number mean: 0.0935567 max: 1.01223
Interface Courant Number mean: 0.00811944 max: 0.855147
deltaT = 0.0017275
Time = 0.111995s

smoothSolver:  Solving for alpha.water, Initial residual = 0.00257122, Final residual = 1.06347e-09, No Iterations 3
Phase-1 volume fraction = 0.198834  Min(alpha.water) = -9.2465e-08  Max(alpha.water) = 1
MULES: Correcting alpha.water
MULES: Correcting alpha.water
Phase-1 volume fraction = 0.198834  Min(alpha.water) = -1.63811e-07  Max(alpha.water) = 1.00001
DICPCG:  Solving for p_rgh, Initial residual = 0.0285798, Final residual = 0.00102629, No Iterations 1
time step continuity errors : sum local = 0.000771444, global = -2.14445e-06
DICPCG:  Solving for p_rgh, Initial residual = 0.00111477, Final residual = 4.91674e-05, No Iterations 6
time step continuity errors : sum local = 3.61737e-05, global = 7.23047e-06
DICPCG:  Solving for p_rgh, Initial residual = 0.000109549, Final residual = 9.28341e-08, No Iterations 47
time step continuity errors : sum local = 6.8391e-08, global = 3.10706e-09, cumulative = -5.60581e-07
smoothSolver:  Solving for epsilon, Initial residual = 0.0336311, Final residual = 1.08484e-07, No Iterations 3
smoothSolver:  Solving for k, Initial residual = 0.0103187, Final residual = 3.1347e-07, No Iterations 3
ExecutionTime = 0.540657 s  ClockTime = 1 s

Courant Number mean: 0.0910289 max: 0.985444
Interface Courant Number mean: 0.00764236 max: 0.834173
deltaT = 0.0017275
Time = 0.113722s

smoothSolver:  Solving for alpha.water, Initial residual = 0.00260999, Final residual = 1.16995e-09, No Iterations 3
Phase-1 volume fraction = 0.198834  Min(alpha.water) = -8.84287e-08  Max(alpha.water) = 1
MULES: Correcting alpha.water
MULES: Correcting alpha.water
Phase-1 volume fraction = 0.198834  Min(alpha.water) = -9.10649e-07  Max(alpha.water) = 1.00001
DICPCG:  Solving for p_rgh, Initial residual = 0.0273657, Final residual = 0.00101242, No Iterations 1
time step continuity errors : sum local = 0.000756709, global = -1.3727e-06
DICPCG:  Solving for p_rgh, Initial residual = 0.00109869, Final residual = 4.42979e-05, No Iterations 6
time step continuity errors : sum local = 3.25212e-05, global = 8.43262e-06
DICPCG:  Solving for p_rgh, Initial residual = 0.000105602, Final residual = 7.38788e-08, No Iterations 48
time step continuity errors : sum local = 5.43146e-08, global = 2.90865e-09, cumulative = -5.57673e-07
smoothSolver:  Solving for epsilon, Initial residual = 0.0351394, Final residual = 1.1532e-07, No Iterations 3
smoothSolver:  Solving for k, Initial residual = 0.0105393, Final residual = 3.19361e-07, No Iterations 3
ExecutionTime = 0.55087 s  ClockTime = 1 s

Courant Number mean: 0.092535 max: 1.00641
Interface Courant Number mean: 0.0078324 max: 0.855314
deltaT = 0.00164898
Time = 0.115371s

smoothSolver:  Solving for alpha.water, Initial residual = 0.00252823, Final residual = 9.55306e-10, No Iterations 3
Phase-1 volume fraction = 0.198834  Min(alpha.water) = -8.42203e-08  Max(alpha.water) = 1
MULES: Correcting alpha.water
MULES: Correcting alpha.water
Phase-1 volume fraction = 0.198834  Min(alpha.water) = -1.15812e-06  Max(alpha.water) = 1.00002
DICPCG:  Solving for p_rgh, Initial residual = 0.0249262, Final residual = 0.000729753, No Iterations 1
time step continuity errors : sum local = 0.000532908, global = -1.58563e-06
DICPCG:  Solving for p_rgh, Initial residual = 0.000802203, Final residual = 3.48545e-05, No Iterations 6
time step continuity errors : sum local = 2.50296e-05, global = 5.41921e-06
DICPCG:  Solving for p_rgh, Initial residual = 7.65886e-05, Final residual = 8.07029e-08, No Iterations 47
time step continuity errors : sum local = 5.80248e-08, global = 1.53287e-09, cumulative = -5.5614e-07
smoothSolver:  Solving for epsilon, Initial residual = 0.0310644, Final residual = 9.17596e-08, No Iterations 3
smoothSolver:  Solving for k, Initial residual = 0.0103502, Final residual = 2.55635e-07, No Iterations 3
ExecutionTime = 0.563659 s  ClockTime = 1 s

Courant Number mean: 0.0896177 max: 0.982696
Interface Courant Number mean: 0.00735007 max: 0.837974
deltaT = 0.00164898
Time = 0.11702s

smoothSolver:  Solving for alpha.water, Initial residual = 0.00257435, Final residual = 9.84022e-10, No Iterations 3
Phase-1 volume fraction = 0.198834  Min(alpha.water) = -7.97607e-08  Max(alpha.water) = 1
MULES: Correcting alpha.water
MULES: Correcting alpha.water
Phase-1 volume fraction = 0.198834  Min(alpha.water) = -1.42317e-06  Max(alpha.water) = 1.00001
DICPCG:  Solving for p_rgh, Initial residual = 0.0395115, Final residual = 0.000449711, No Iterations 1
time step continuity errors : sum local = 0.000383596, global = -9.81692e-07
DICPCG:  Solving for p_rgh, Initial residual = 0.000505194, Final residual = 2.25145e-05, No Iterations 10
time step continuity errors : sum local = 1.85437e-05, global = -1.25475e-06
DICPCG:  Solving for p_rgh, Initial residual = 5.40841e-05, Final residual = 9.05876e-08, No Iterations 38
time step continuity errors : sum local = 7.48783e-08, global = -6.82061e-09, cumulative = -5.6296e-07
smoothSolver:  Solving for epsilon, Initial residual = 0.0287826, Final residual = 9.37562e-08, No Iterations 3
smoothSolver:  Solving for k, Initial residual = 0.0105235, Final residual = 2.58517e-07, No Iterations 3
ExecutionTime = 0.576902 s  ClockTime = 1 s

Courant Number mean: 0.090908 max: 1.00937
Interface Courant Number mean: 0.00760361 max: 0.862149
deltaT = 0.00157046
Time = 0.118591s

smoothSolver:  Solving for alpha.water, Initial residual = 0.00249706, Final residual = 7.88352e-10, No Iterations 3
Phase-1 volume fraction = 0.198834  Min(alpha.water) = -7.53628e-08  Max(alpha.water) = 1
MULES: Correcting alpha.water
MULES: Correcting alpha.water
Phase-1 volume fraction = 0.198834  Min(alpha.water) = -1.52254e-06  Max(alpha.water) = 1.00001
DICPCG:  Solving for p_rgh, Initial residual = 0.0375527, Final residual = 0.000477602, No Iterations 1
time step continuity errors : sum local = 0.00035468, global = 2.71535e-07
DICPCG:  Solving for p_rgh, Initial residual = 0.000533668, Final residual = 2.41507e-05, No Iterations 10
time step continuity errors : sum local = 1.7353e-05, global = -1.18909e-06
DICPCG:  Solving for p_rgh, Initial residual = 5.68381e-05, Final residual = 8.90257e-08, No Iterations 40
time step continuity errors : sum local = 6.42546e-08, global = -1.72015e-09, cumulative = -5.6468e-07
smoothSolver:  Solving for epsilon, Initial residual = 0.0274982, Final residual = 7.15478e-08, No Iterations 3
smoothSolver:  Solving for k, Initial residual = 0.0102765, Final residual = 2.02419e-07, No Iterations 3
ExecutionTime = 0.586054 s  ClockTime = 1 s

Courant Number mean: 0.0877387 max: 0.988777
Interface Courant Number mean: 0.00735172 max: 0.844251
deltaT = 0.00157046
Time = 0.120161s

smoothSolver:  Solving for alpha.water, Initial residual = 0.00253341, Final residual = 8.3386e-10, No Iterations 3
Phase-1 volume fraction = 0.198834  Min(alpha.water) = -7.08882e-08  Max(alpha.water) = 1
MULES: Correcting alpha.water
MULES: Correcting alpha.water
Phase-1 volume fraction = 0.198834  Min(alpha.water) = -1.79271e-06  Max(alpha.water) = 1
DICPCG:  Solving for p_rgh, Initial residual = 0.0347979, Final residual = 0.000587787, No Iterations 1
time step continuity errors : sum local = 0.00040836, global = 2.71413e-07
DICPCG:  Solving for p_rgh, Initial residual = 0.000651852, Final residual = 2.94015e-05, No Iterations 10
time step continuity errors : sum local = 1.98352e-05, global = -2.27755e-06
DICPCG:  Solving for p_rgh, Initial residual = 6.96157e-05, Final residual = 7.2299e-08, No Iterations 42
time step continuity errors : sum local = 4.90046e-08, global = -5.69038e-09, cumulative = -5.70371e-07
smoothSolver:  Solving for epsilon, Initial residual = 0.0264283, Final residual = 7.23361e-08, No Iterations 3
smoothSolver:  Solving for k, Initial residual = 0.0104321, Final residual = 2.04331e-07, No Iterations 3
ExecutionTime = 0.597351 s  ClockTime = 1 s

Courant Number mean: 0.0889455 max: 1.02006
Interface Courant Number mean: 0.0075557 max: 0.869339
deltaT = 0.00149194
Time = 0.121653s

smoothSolver:  Solving for alpha.water, Initial residual = 0.00244738, Final residual = 6.34497e-10, No Iterations 3
Phase-1 volume fraction = 0.198834  Min(alpha.water) = -6.66155e-08  Max(alpha.water) = 1
MULES: Correcting alpha.water
MULES: Correcting alpha.water
Phase-1 volume fraction = 0.198834  Min(alpha.water) = -2.03807e-06  Max(alpha.water) = 1.00001
DICPCG:  Solving for p_rgh, Initial residual = 0.0319822, Final residual = 0.000819578, No Iterations 1
time step continuity errors : sum local = 0.000498931, global = 4.57347e-07
DICPCG:  Solving for p_rgh, Initial residual = 0.000896012, Final residual = 3.88327e-05, No Iterations 10
time step continuity errors : sum local = 2.30037e-05, global = -1.30762e-06
DICPCG:  Solving for p_rgh, Initial residual = 9.05315e-05, Final residual = 8.51264e-08, No Iterations 43
time step continuity errors : sum local = 5.06578e-08, global = -6.53307e-09, cumulative = -5.76904e-07
smoothSolver:  Solving for epsilon, Initial residual = 0.0282065, Final residual = 5.4709e-08, No Iterations 3
smoothSolver:  Solving for k, Initial residual = 0.0101409, Final residual = 1.57623e-07, No Iterations 3
ExecutionTime = 0.608057 s  ClockTime = 1 s

Courant Number mean: 0.0856219 max: 0.998565
Interface Courant Number mean: 0.00730984 max: 0.847967
deltaT = 0.00149194
Time = 0.123145s

smoothSolver:  Solving for alpha.water, Initial residual = 0.00248231, Final residual = 6.46161e-10, No Iterations 3
Phase-1 volume fraction = 0.198834  Min(alpha.water) = -6.34357e-08  Max(alpha.water) = 1
MULES: Correcting alpha.water
MULES: Correcting alpha.water
Phase-1 volume fraction = 0.198834  Min(alpha.water) = -3.02748e-07  Max(alpha.water) = 1.00002
DICPCG:  Solving for p_rgh, Initial residual = 0.0287705, Final residual = 0.000895249, No Iterations 1
time step continuity errors : sum local = 0.000519217, global = 2.7948e-07
DICPCG:  Solving for p_rgh, Initial residual = 0.000977375, Final residual = 4.01979e-05, No Iterations 10
time step continuity errors : sum local = 2.27846e-05, global = -1.32739e-06
DICPCG:  Solving for p_rgh, Initial residual = 9.9687e-05, Final residual = 9.11112e-08, No Iterations 43
time step continuity errors : sum local = 5.18859e-08, global = -4.7633e-09, cumulative = -5.81667e-07
smoothSolver:  Solving for epsilon, Initial residual = 0.0300939, Final residual = 5.56197e-08, No Iterations 3
smoothSolver:  Solving for k, Initial residual = 0.0103715, Final residual = 1.60125e-07, No Iterations 3
ExecutionTime = 0.617682 s  ClockTime = 1 s

Courant Number mean: 0.0868169 max: 1.02983
Interface Courant Number mean: 0.00721751 max: 0.869975
deltaT = 0.00141341
Time = 0.124559s

smoothSolver:  Solving for alpha.water, Initial residual = 0.00238658, Final residual = 4.76014e-10, No Iterations 3
Phase-1 volume fraction = 0.198834  Min(alpha.water) = -6.28475e-08  Max(alpha.water) = 1
MULES: Correcting alpha.water
MULES: Correcting alpha.water
Phase-1 volume fraction = 0.198834  Min(alpha.water) = -6.28475e-08  Max(alpha.water) = 1.00001
DICPCG:  Solving for p_rgh, Initial residual = 0.0267656, Final residual = 0.000874495, No Iterations 1
time step continuity errors : sum local = 0.000455229, global = 2.62919e-07
DICPCG:  Solving for p_rgh, Initial residual = 0.000954703, Final residual = 4.76211e-05, No Iterations 6
time step continuity errors : sum local = 2.4284e-05, global = 4.26031e-06
DICPCG:  Solving for p_rgh, Initial residual = 9.78644e-05, Final residual = 9.54189e-08, No Iterations 46
time step continuity errors : sum local = 4.8763e-08, global = 1.67261e-09, cumulative = -5.79995e-07
smoothSolver:  Solving for epsilon, Initial residual = 0.0294857, Final residual = 4.09247e-08, No Iterations 3
smoothSolver:  Solving for k, Initial residual = 0.0101314, Final residual = 1.21721e-07, No Iterations 3
ExecutionTime = 0.629683 s  ClockTime = 1 s

Courant Number mean: 0.0833041 max: 1.00313
Interface Courant Number mean: 0.0066672 max: 0.841043
deltaT = 0.00133902
Time = 0.125898s

smoothSolver:  Solving for alpha.water, Initial residual = 0.00228353, Final residual = 3.55142e-10, No Iterations 3
Phase-1 volume fraction = 0.198834  Min(alpha.water) = -6.19572e-08  Max(alpha.water) = 1
MULES: Correcting alpha.water
MULES: Correcting alpha.water
Phase-1 volume fraction = 0.198834  Min(alpha.water) = -6.19572e-08  Max(alpha.water) = 1
DICPCG:  Solving for p_rgh, Initial residual = 0.0242345, Final residual = 0.000779522, No Iterations 1
time step continuity errors : sum local = 0.000369819, global = -7.33772e-07
DICPCG:  Solving for p_rgh, Initial residual = 0.00085994, Final residual = 3.92842e-05, No Iterations 6
time step continuity errors : sum local = 1.83271e-05, global = 2.6301e-06
DICPCG:  Solving for p_rgh, Initial residual = 8.189e-05, Final residual = 9.06091e-08, No Iterations 45
time step continuity errors : sum local = 4.23611e-08, global = -4.41215e-10, cumulative = -5.80436e-07
smoothSolver:  Solving for epsilon, Initial residual = 0.0283646, Final residual = 2.95264e-08, No Iterations 3
smoothSolver:  Solving for k, Initial residual = 0.00986616, Final residual = 9.21228e-08, No Iterations 3
ExecutionTime = 0.64024 s  ClockTime = 1 s

Courant Number mean: 0.0798581 max: 0.973349
Interface Courant Number mean: 0.00631936 max: 0.807873
deltaT = 0.00133902
Time = 0.127237s

smoothSolver:  Solving for alpha.water, Initial residual = 0.0023097, Final residual = 3.66308e-10, No Iterations 3
Phase-1 volume fraction = 0.198834  Min(alpha.water) = -6.07707e-08  Max(alpha.water) = 1
MULES: Correcting alpha.water
MULES: Correcting alpha.water
Phase-1 volume fraction = 0.198834  Min(alpha.water) = -6.07707e-08  Max(alpha.water) = 1.00003
DICPCG:  Solving for p_rgh, Initial residual = 0.0229122, Final residual = 0.000708525, No Iterations 1
time step continuity errors : sum local = 0.000348667, global = -4.2242e-07
DICPCG:  Solving for p_rgh, Initial residual = 0.000777138, Final residual = 3.68399e-05, No Iterations 6
time step continuity errors : sum local = 1.78649e-05, global = 2.65914e-06
DICPCG:  Solving for p_rgh, Initial residual = 7.78488e-05, Final residual = 9.50637e-08, No Iterations 46
time step continuity errors : sum local = 4.61943e-08, global = -1.75153e-09, cumulative = -5.82187e-07
smoothSolver:  Solving for epsilon, Initial residual = 0.0274695, Final residual = 2.89269e-08, No Iterations 3
smoothSolver:  Solving for k, Initial residual = 0.0100922, Final residual = 9.34078e-08, No Iterations 3
ExecutionTime = 0.650165 s  ClockTime = 1 s

Courant Number mean: 0.0807338 max: 0.993951
Interface Courant Number mean: 0.00619474 max: 0.812272
deltaT = 0.00133902
Time = 0.128576s

smoothSolver:  Solving for alpha.water, Initial residual = 0.00234003, Final residual = 3.71259e-10, No Iterations 3
Phase-1 volume fraction = 0.198834  Min(alpha.water) = -5.93221e-08  Max(alpha.water) = 1
MULES: Correcting alpha.water
MULES: Correcting alpha.water
Phase-1 volume fraction = 0.198834  Min(alpha.water) = -5.93221e-08  Max(alpha.water) = 1
DICPCG:  Solving for p_rgh, Initial residual = 0.0330919, Final residual = 0.000570809, No Iterations 1
time step continuity errors : sum local = 0.00032276, global = -4.52862e-07
DICPCG:  Solving for p_rgh, Initial residual = 0.000635204, Final residual = 3.08934e-05, No Iterations 6
time step continuity errors : sum local = 1.69904e-05, global = 1.82688e-06
DICPCG:  Solving for p_rgh, Initial residual = 6.99192e-05, Final residual = 8.05324e-08, No Iterations 30
time step continuity errors : sum local = 4.43766e-08, global = 6.41382e-09, cumulative = -5.75773e-07
smoothSolver:  Solving for epsilon, Initial residual = 0.0263545, Final residual = 2.82528e-08, No Iterations 3
smoothSolver:  Solving for k, Initial residual = 0.010295, Final residual = 9.46329e-08, No Iterations 3
ExecutionTime = 0.661282 s  ClockTime = 1 s

Courant Number mean: 0.0816103 max: 1.01026
Interface Courant Number mean: 0.00668657 max: 0.808508
deltaT = 0.00126026
Time = 0.129836s

smoothSolver:  Solving for alpha.water, Initial residual = 0.00224198, Final residual = 2.5815e-10, No Iterations 3
Phase-1 volume fraction = 0.198834  Min(alpha.water) = -5.77535e-08  Max(alpha.water) = 1
MULES: Correcting alpha.water
MULES: Correcting alpha.water
Phase-1 volume fraction = 0.198834  Min(alpha.water) = -4.2706e-07  Max(alpha.water) = 1.00001
DICPCG:  Solving for p_rgh, Initial residual = 0.0320447, Final residual = 0.000428466, No Iterations 1
time step continuity errors : sum local = 0.000214883, global = -2.55927e-07
DICPCG:  Solving for p_rgh, Initial residual = 0.000483119, Final residual = 2.35984e-05, No Iterations 10
time step continuity errors : sum local = 1.15092e-05, global = -1.5611e-08
DICPCG:  Solving for p_rgh, Initial residual = 5.72206e-05, Final residual = 8.62579e-08, No Iterations 39
time step continuity errors : sum local = 4.22602e-08, global = -6.86693e-09, cumulative = -5.8264e-07
smoothSolver:  Solving for epsilon, Initial residual = 0.0244023, Final residual = 8.57335e-07, No Iterations 2
smoothSolver:  Solving for k, Initial residual = 0.0098744, Final residual = 6.87436e-08, No Iterations 3
ExecutionTime = 0.671766 s  ClockTime = 1 s

Courant Number mean: 0.0775863 max: 0.958256
Interface Courant Number mean: 0.006512 max: 0.868247
deltaT = 0.00126026
Time = 0.131096s

smoothSolver:  Solving for alpha.water, Initial residual = 0.00227323, Final residual = 2.60971e-10, No Iterations 3
Phase-1 volume fraction = 0.198834  Min(alpha.water) = -5.60105e-08  Max(alpha.water) = 1
MULES: Correcting alpha.water
MULES: Correcting alpha.water
Phase-1 volume fraction = 0.198834  Min(alpha.water) = -9.88797e-07  Max(alpha.water) = 1.00002
DICPCG:  Solving for p_rgh, Initial residual = 0.0301488, Final residual = 0.000521429, No Iterations 1
time step continuity errors : sum local = 0.000247965, global = 3.37024e-08
DICPCG:  Solving for p_rgh, Initial residual = 0.000588967, Final residual = 2.81946e-05, No Iterations 10
time step continuity errors : sum local = 1.3076e-05, global = -3.75793e-07
DICPCG:  Solving for p_rgh, Initial residual = 7.08285e-05, Final residual = 8.08109e-08, No Iterations 43
time step continuity errors : sum local = 3.76743e-08, global = -1.28704e-09, cumulative = -5.83927e-07
smoothSolver:  Solving for epsilon, Initial residual = 0.0236637, Final residual = 8.47099e-07, No Iterations 2
smoothSolver:  Solving for k, Initial residual = 0.00997704, Final residual = 6.97539e-08, No Iterations 3
ExecutionTime = 0.683181 s  ClockTime = 1 s

Courant Number mean: 0.0783885 max: 0.953778
Interface Courant Number mean: 0.00633304 max: 0.853763
deltaT = 0.00126026
Time = 0.132356s

smoothSolver:  Solving for alpha.water, Initial residual = 0.00231255, Final residual = 2.6212e-10, No Iterations 3
Phase-1 volume fraction = 0.198834  Min(alpha.water) = -5.41201e-08  Max(alpha.water) = 1
MULES: Correcting alpha.water
MULES: Correcting alpha.water
Phase-1 volume fraction = 0.198834  Min(alpha.water) = -1.11126e-06  Max(alpha.water) = 1
DICPCG:  Solving for p_rgh, Initial residual = 0.0293498, Final residual = 0.000714824, No Iterations 1
time step continuity errors : sum local = 0.000329167, global = 1.16826e-07
DICPCG:  Solving for p_rgh, Initial residual = 0.000803535, Final residual = 3.78565e-05, No Iterations 9
time step continuity errors : sum local = 1.70119e-05, global = 2.23621e-06
DICPCG:  Solving for p_rgh, Initial residual = 8.91737e-05, Final residual = 9.77049e-08, No Iterations 47
time step continuity errors : sum local = 4.41228e-08, global = -3.78386e-09, cumulative = -5.87711e-07
smoothSolver:  Solving for epsilon, Initial residual = 0.0229071, Final residual = 8.34398e-07, No Iterations 2
smoothSolver:  Solving for k, Initial residual = 0.0101224, Final residual = 7.09007e-08, No Iterations 3
ExecutionTime = 0.69513 s  ClockTime = 1 s

Courant Number mean: 0.0791967 max: 0.938726
Interface Courant Number mean: 0.00648607 max: 0.829433
deltaT = 0.00126026
Time = 0.133617s

smoothSolver:  Solving for alpha.water, Initial residual = 0.00235038, Final residual = 2.61543e-10, No Iterations 3
Phase-1 volume fraction = 0.198834  Min(alpha.water) = -5.21078e-08  Max(alpha.water) = 1
MULES: Correcting alpha.water
MULES: Correcting alpha.water
Phase-1 volume fraction = 0.198834  Min(alpha.water) = -5.21078e-08  Max(alpha.water) = 1
DICPCG:  Solving for p_rgh, Initial residual = 0.0271046, Final residual = 0.000772363, No Iterations 1
time step continuity errors : sum local = 0.00034197, global = -2.64327e-07
DICPCG:  Solving for p_rgh, Initial residual = 0.000860574, Final residual = 4.09889e-05, No Iterations 11
time step continuity errors : sum local = 1.77757e-05, global = -1.01606e-06
DICPCG:  Solving for p_rgh, Initial residual = 0.000101602, Final residual = 9.86389e-08, No Iterations 43
time step continuity errors : sum local = 4.30702e-08, global = -1.81401e-10, cumulative = -5.87893e-07
smoothSolver:  Solving for epsilon, Initial residual = 0.0248037, Final residual = 8.16548e-07, No Iterations 2
smoothSolver:  Solving for k, Initial residual = 0.0103159, Final residual = 7.22146e-08, No Iterations 3
ExecutionTime = 0.705879 s  ClockTime = 1 s

Courant Number mean: 0.08005 max: 0.909216
Interface Courant Number mean: 0.00642864 max: 0.794715
deltaT = 0.00136528
Time = 0.134982s

smoothSolver:  Solving for alpha.water, Initial residual = 0.00259486, Final residual = 4.28309e-10, No Iterations 3
Phase-1 volume fraction = 0.198834  Min(alpha.water) = -4.98166e-08  Max(alpha.water) = 1
MULES: Correcting alpha.water
MULES: Correcting alpha.water
Phase-1 volume fraction = 0.198834  Min(alpha.water) = -4.98166e-08  Max(alpha.water) = 1.00002
DICPCG:  Solving for p_rgh, Initial residual = 0.0286489, Final residual = 0.000894489, No Iterations 1
time step continuity errors : sum local = 0.000451045, global = 2.6981e-07
DICPCG:  Solving for p_rgh, Initial residual = 0.000994259, Final residual = 4.64939e-05, No Iterations 11
time step continuity errors : sum local = 2.29244e-05, global = 2.61265e-07
DICPCG:  Solving for p_rgh, Initial residual = 0.000130306, Final residual = 9.484e-08, No Iterations 44
time step continuity errors : sum local = 4.71056e-08, global = -1.14259e-10, cumulative = -5.88007e-07
smoothSolver:  Solving for epsilon, Initial residual = 0.0298561, Final residual = 2.82532e-08, No Iterations 3
smoothSolver:  Solving for k, Initial residual = 0.011261, Final residual = 1.13865e-07, No Iterations 3
ExecutionTime = 0.717494 s  ClockTime = 1 s

Courant Number mean: 0.0876793 max: 0.926525
Interface Courant Number mean: 0.00713093 max: 0.926525
deltaT = 0.00136528
Time = 0.136347s

smoothSolver:  Solving for alpha.water, Initial residual = 0.0026177, Final residual = 4.29331e-10, No Iterations 3
Phase-1 volume fraction = 0.198834  Min(alpha.water) = -4.74392e-08  Max(alpha.water) = 1
MULES: Correcting alpha.water
MULES: Correcting alpha.water
Phase-1 volume fraction = 0.198834  Min(alpha.water) = -4.74392e-08  Max(alpha.water) = 1
DICPCG:  Solving for p_rgh, Initial residual = 0.025138, Final residual = 0.000818163, No Iterations 1
time step continuity errors : sum local = 0.000403819, global = -6.97754e-08
DICPCG:  Solving for p_rgh, Initial residual = 0.000936828, Final residual = 4.39919e-05, No Iterations 11
time step continuity errors : sum local = 2.13274e-05, global = -3.85276e-07
DICPCG:  Solving for p_rgh, Initial residual = 0.000121313, Final residual = 6.58073e-08, No Iterations 44
time step continuity errors : sum local = 3.21399e-08, global = 3.96083e-11, cumulative = -5.87967e-07
smoothSolver:  Solving for epsilon, Initial residual = 0.0327094, Final residual = 2.75983e-08, No Iterations 3
smoothSolver:  Solving for k, Initial residual = 0.011405, Final residual = 1.15877e-07, No Iterations 3
ExecutionTime = 0.730802 s  ClockTime = 1 s

Courant Number mean: 0.0886071 max: 0.896912
Interface Courant Number mean: 0.0075745 max: 0.882988
deltaT = 0.00151698
Time = 0.137864s

smoothSolver:  Solving for alpha.water, Initial residual = 0.00291486, Final residual = 7.98178e-10, No Iterations 3
Phase-1 volume fraction = 0.198834  Min(alpha.water) = -4.58534e-08  Max(alpha.water) = 1
MULES: Correcting alpha.water
MULES: Correcting alpha.water
Phase-1 volume fraction = 0.198834  Min(alpha.water) = -4.58534e-08  Max(alpha.water) = 1.00001
DICPCG:  Solving for p_rgh, Initial residual = 0.0271216, Final residual = 0.000919991, No Iterations 1
time step continuity errors : sum local = 0.000554706, global = 1.08567e-07
DICPCG:  Solving for p_rgh, Initial residual = 0.0010639, Final residual = 4.89112e-05, No Iterations 13
time step continuity errors : sum local = 2.89796e-05, global = 1.29439e-06
DICPCG:  Solving for p_rgh, Initial residual = 0.00015533, Final residual = 9.55503e-08, No Iterations 48
time step continuity errors : sum local = 5.72657e-08, global = 3.05896e-09, cumulative = -5.84908e-07
smoothSolver:  Solving for epsilon, Initial residual = 0.0381259, Final residual = 4.95941e-08, No Iterations 3
smoothSolver:  Solving for k, Initial residual = 0.0128979, Final residual = 2.09556e-07, No Iterations 3
ExecutionTime = 0.743746 s  ClockTime = 1 s

Courant Number mean: 0.0995573 max: 1.01461
Interface Courant Number mean: 0.00859887 max: 0.981988
deltaT = 0.00134842
Time = 0.139213s

smoothSolver:  Solving for alpha.water, Initial residual = 0.00264252, Final residual = 3.86292e-10, No Iterations 3
Phase-1 volume fraction = 0.198834  Min(alpha.water) = -4.54323e-08  Max(alpha.water) = 1
MULES: Correcting alpha.water
MULES: Correcting alpha.water
Phase-1 volume fraction = 0.198834  Min(alpha.water) = -4.54323e-08  Max(alpha.water) = 1.00001
DICPCG:  Solving for p_rgh, Initial residual = 0.025763, Final residual = 0.000714319, No Iterations 1
time step continuity errors : sum local = 0.000375638, global = -9.01345e-08
DICPCG:  Solving for p_rgh, Initial residual = 0.000795594, Final residual = 3.30635e-05, No Iterations 12
time step continuity errors : sum local = 1.70577e-05, global = -1.83864e-07
DICPCG:  Solving for p_rgh, Initial residual = 0.000100902, Final residual = 6.11169e-08, No Iterations 42
time step continuity errors : sum local = 3.17881e-08, global = 2.78273e-09, cumulative = -5.82126e-07
smoothSolver:  Solving for epsilon, Initial residual = 0.0308011, Final residual = 2.43019e-08, No Iterations 3
smoothSolver:  Solving for k, Initial residual = 0.0117656, Final residual = 1.13853e-07, No Iterations 3
ExecutionTime = 0.754407 s  ClockTime = 1 s

Courant Number mean: 0.0893238 max: 0.90645
Interface Courant Number mean: 0.00743616 max: 0.853668
deltaT = 0.00134842
Time = 0.140561s

smoothSolver:  Solving for alpha.water, Initial residual = 0.002679, Final residual = 3.91915e-10, No Iterations 3
Phase-1 volume fraction = 0.198834  Min(alpha.water) = -4.47616e-08  Max(alpha.water) = 1
MULES: Correcting alpha.water
MULES: Correcting alpha.water
Phase-1 volume fraction = 0.198834  Min(alpha.water) = -4.47616e-08  Max(alpha.water) = 1.00002
DICPCG:  Solving for p_rgh, Initial residual = 0.0333615, Final residual = 0.000590488, No Iterations 1
time step continuity errors : sum local = 0.000337487, global = 7.71427e-08
DICPCG:  Solving for p_rgh, Initial residual = 0.000677454, Final residual = 3.0934e-05, No Iterations 12
time step continuity errors : sum local = 1.71883e-05, global = -1.6722e-07
DICPCG:  Solving for p_rgh, Initial residual = 9.14249e-05, Final residual = 7.22739e-08, No Iterations 43
time step continuity errors : sum local = 4.04649e-08, global = 5.05851e-09, cumulative = -5.77067e-07
smoothSolver:  Solving for epsilon, Initial residual = 0.0287884, Final residual = 9.99592e-07, No Iterations 2
smoothSolver:  Solving for k, Initial residual = 0.0118773, Final residual = 1.16464e-07, No Iterations 3
ExecutionTime = 0.764916 s  ClockTime = 1 s

Courant Number mean: 0.0901519 max: 0.898886
Interface Courant Number mean: 0.00776637 max: 0.898886
deltaT = 0.00134842
Time = 0.141909s

smoothSolver:  Solving for alpha.water, Initial residual = 0.00274008, Final residual = 3.95465e-10, No Iterations 3
Phase-1 volume fraction = 0.198834  Min(alpha.water) = -4.38658e-08  Max(alpha.water) = 1
MULES: Correcting alpha.water
MULES: Correcting alpha.water
Phase-1 volume fraction = 0.198834  Min(alpha.water) = -4.38658e-08  Max(alpha.water) = 1.00001
DICPCG:  Solving for p_rgh, Initial residual = 0.0326039, Final residual = 0.000613906, No Iterations 1
time step continuity errors : sum local = 0.000340987, global = 5.38213e-08
DICPCG:  Solving for p_rgh, Initial residual = 0.000698409, Final residual = 3.31889e-05, No Iterations 13
time step continuity errors : sum local = 1.79467e-05, global = 2.10844e-07
DICPCG:  Solving for p_rgh, Initial residual = 9.80233e-05, Final residual = 9.43536e-08, No Iterations 46
time step continuity errors : sum local = 5.15524e-08, global = 4.59022e-09, cumulative = -5.72477e-07
smoothSolver:  Solving for epsilon, Initial residual = 0.0308079, Final residual = 9.69962e-07, No Iterations 2
smoothSolver:  Solving for k, Initial residual = 0.0120803, Final residual = 1.2e-07, No Iterations 3
ExecutionTime = 0.777673 s  ClockTime = 1 s

Courant Number mean: 0.0910485 max: 0.898054
Interface Courant Number mean: 0.0082232 max: 0.87866
deltaT = 0.00134842
Time = 0.143258s

smoothSolver:  Solving for alpha.water, Initial residual = 0.0027729, Final residual = 4.04759e-10, No Iterations 3
Phase-1 volume fraction = 0.198834  Min(alpha.water) = -4.27686e-08  Max(alpha.water) = 1
MULES: Correcting alpha.water
MULES: Correcting alpha.water
Phase-1 volume fraction = 0.198834  Min(alpha.water) = -4.27686e-08  Max(alpha.water) = 1
DICPCG:  Solving for p_rgh, Initial residual = 0.0311614, Final residual = 0.000737791, No Iterations 1
time step continuity errors : sum local = 0.000396324, global = 9.6181e-08
DICPCG:  Solving for p_rgh, Initial residual = 0.000833216, Final residual = 3.50498e-05, No Iterations 13
time step continuity errors : sum local = 1.83577e-05, global = -2.37689e-07
DICPCG:  Solving for p_rgh, Initial residual = 0.000108529, Final residual = 8.62879e-08, No Iterations 48
time step continuity errors : sum local = 4.56648e-08, global = -6.04762e-10, cumulative = -5.73082e-07
smoothSolver:  Solving for epsilon, Initial residual = 0.0320265, Final residual = 9.52072e-07, No Iterations 2
smoothSolver:  Solving for k, Initial residual = 0.0124797, Final residual = 1.244e-07, No Iterations 3
ExecutionTime = 0.788961 s  ClockTime = 1 s

Courant Number mean: 0.0920228 max: 0.903911
Interface Courant Number mean: 0.00836661 max: 0.847245
deltaT = 0.00134842
Time = 0.144606s

smoothSolver:  Solving for alpha.water, Initial residual = 0.00280354, Final residual = 4.15083e-10, No Iterations 3
Phase-1 volume fraction = 0.198834  Min(alpha.water) = -4.1492e-08  Max(alpha.water) = 1
MULES: Correcting alpha.water
MULES: Correcting alpha.water
Phase-1 volume fraction = 0.198834  Min(alpha.water) = -4.1492e-08  Max(alpha.water) = 1
DICPCG:  Solving for p_rgh, Initial residual = 0.0276941, Final residual = 0.000818396, No Iterations 1
time step continuity errors : sum local = 0.000425598, global = 1.79907e-07
DICPCG:  Solving for p_rgh, Initial residual = 0.000924311, Final residual = 3.3788e-05, No Iterations 13
time step continuity errors : sum local = 1.71902e-05, global = 4.05668e-07
DICPCG:  Solving for p_rgh, Initial residual = 0.000112313, Final residual = 9.13786e-08, No Iterations 47
[...]
ExecutionTime = 7.59982 s  ClockTime = 8 s

Courant Number mean: 0.190691 max: 0.949415
Interface Courant Number mean: 0.0372503 max: 0.649649
deltaT = 0.00186012
Time = 0.973958s

smoothSolver:  Solving for alpha.water, Initial residual = 0.00692191, Final residual = 5.39247e-09, No Iterations 3
Phase-1 volume fraction = 0.19517  Min(alpha.water) = -6.92523e-14  Max(alpha.water) = 1
MULES: Correcting alpha.water
MULES: Correcting alpha.water
Phase-1 volume fraction = 0.19517  Min(alpha.water) = -1.48865e-08  Max(alpha.water) = 1
DICPCG:  Solving for p_rgh, Initial residual = 0.0283313, Final residual = 0.000428326, No Iterations 2
time step continuity errors : sum local = 0.000296131, global = -2.48541e-05
DICPCG:  Solving for p_rgh, Initial residual = 0.00056875, Final residual = 2.71252e-05, No Iterations 7
time step continuity errors : sum local = 1.85372e-05, global = -2.9901e-06
DICPCG:  Solving for p_rgh, Initial residual = 0.000130856, Final residual = 9.7577e-08, No Iterations 40
time step continuity errors : sum local = 6.65666e-08, global = -1.44346e-08, cumulative = -2.7498e-07
smoothSolver:  Solving for epsilon, Initial residual = 0.0123871, Final residual = 6.75608e-07, No Iterations 3
smoothSolver:  Solving for k, Initial residual = 0.0082554, Final residual = 7.6852e-07, No Iterations 3
ExecutionTime = 7.61084 s  ClockTime = 8 s

Courant Number mean: 0.189431 max: 0.956445
Interface Courant Number mean: 0.0375407 max: 0.646271
deltaT = 0.00186012
Time = 0.975818s

smoothSolver:  Solving for alpha.water, Initial residual = 0.00685001, Final residual = 5.05724e-09, No Iterations 3
Phase-1 volume fraction = 0.19517  Min(alpha.water) = -6.38222e-14  Max(alpha.water) = 1
MULES: Correcting alpha.water
MULES: Correcting alpha.water
Phase-1 volume fraction = 0.19517  Min(alpha.water) = -1.87638e-05  Max(alpha.water) = 1
DICPCG:  Solving for p_rgh, Initial residual = 0.0289741, Final residual = 0.000437953, No Iterations 2
time step continuity errors : sum local = 0.000293934, global = -2.73626e-05
DICPCG:  Solving for p_rgh, Initial residual = 0.000586761, Final residual = 2.66198e-05, No Iterations 6
time step continuity errors : sum local = 1.76536e-05, global = 9.18194e-07
DICPCG:  Solving for p_rgh, Initial residual = 0.000134901, Final residual = 7.0589e-08, No Iterations 53
time step continuity errors : sum local = 4.67684e-08, global = 1.7946e-09, cumulative = -2.73186e-07
smoothSolver:  Solving for epsilon, Initial residual = 0.012294, Final residual = 6.62424e-07, No Iterations 3
smoothSolver:  Solving for k, Initial residual = 0.00820097, Final residual = 7.4124e-07, No Iterations 3
ExecutionTime = 7.62191 s  ClockTime = 8 s

Courant Number mean: 0.188212 max: 0.962767
Interface Courant Number mean: 0.037082 max: 0.640559
deltaT = 0.00186012
Time = 0.977679s

smoothSolver:  Solving for alpha.water, Initial residual = 0.00681058, Final residual = 4.75704e-09, No Iterations 3
Phase-1 volume fraction = 0.195169  Min(alpha.water) = -5.85566e-14  Max(alpha.water) = 1
MULES: Correcting alpha.water
MULES: Correcting alpha.water
Phase-1 volume fraction = 0.195169  Min(alpha.water) = -3.14107e-05  Max(alpha.water) = 1
DICPCG:  Solving for p_rgh, Initial residual = 0.0287061, Final residual = 0.000466225, No Iterations 2
time step continuity errors : sum local = 0.000303813, global = -3.13257e-05
DICPCG:  Solving for p_rgh, Initial residual = 0.000608227, Final residual = 2.95141e-05, No Iterations 6
time step continuity errors : sum local = 1.90717e-05, global = -4.79653e-06
DICPCG:  Solving for p_rgh, Initial residual = 0.000137482, Final residual = 9.22437e-08, No Iterations 52
time step continuity errors : sum local = 5.95598e-08, global = 4.04854e-09, cumulative = -2.69137e-07
smoothSolver:  Solving for epsilon, Initial residual = 0.012839, Final residual = 6.8549e-07, No Iterations 3
smoothSolver:  Solving for k, Initial residual = 0.00814832, Final residual = 7.07182e-07, No Iterations 3
ExecutionTime = 7.63461 s  ClockTime = 8 s

Courant Number mean: 0.186986 max: 0.96764
Interface Courant Number mean: 0.0369033 max: 0.649534
deltaT = 0.00186012
Time = 0.979539s

smoothSolver:  Solving for alpha.water, Initial residual = 0.0067892, Final residual = 4.47136e-09, No Iterations 3
Phase-1 volume fraction = 0.195169  Min(alpha.water) = -5.32715e-14  Max(alpha.water) = 1
MULES: Correcting alpha.water
MULES: Correcting alpha.water
Phase-1 volume fraction = 0.195169  Min(alpha.water) = -2.81927e-05  Max(alpha.water) = 1
DICPCG:  Solving for p_rgh, Initial residual = 0.0304091, Final residual = 0.000468694, No Iterations 2
time step continuity errors : sum local = 0.000299253, global = -2.98162e-05
DICPCG:  Solving for p_rgh, Initial residual = 0.000608401, Final residual = 2.40966e-05, No Iterations 10
time step continuity errors : sum local = 1.52226e-05, global = 4.97541e-07
DICPCG:  Solving for p_rgh, Initial residual = 0.000131645, Final residual = 8.71158e-08, No Iterations 48
time step continuity errors : sum local = 5.49204e-08, global = 3.78389e-09, cumulative = -2.65353e-07
smoothSolver:  Solving for epsilon, Initial residual = 0.0124066, Final residual = 6.6035e-07, No Iterations 3
smoothSolver:  Solving for k, Initial residual = 0.00807741, Final residual = 6.69448e-07, No Iterations 3
ExecutionTime = 7.64542 s  ClockTime = 8 s

Courant Number mean: 0.185796 max: 0.971358
Interface Courant Number mean: 0.0363954 max: 0.645477
deltaT = 0.00186012
Time = 0.981399s

smoothSolver:  Solving for alpha.water, Initial residual = 0.00679013, Final residual = 4.21175e-09, No Iterations 3
Phase-1 volume fraction = 0.195168  Min(alpha.water) = -4.77789e-14  Max(alpha.water) = 1
MULES: Correcting alpha.water
MULES: Correcting alpha.water
Phase-1 volume fraction = 0.195168  Min(alpha.water) = -2.02322e-06  Max(alpha.water) = 1
DICPCG:  Solving for p_rgh, Initial residual = 0.0290555, Final residual = 0.000508691, No Iterations 2
time step continuity errors : sum local = 0.00031306, global = -3.65873e-05
DICPCG:  Solving for p_rgh, Initial residual = 0.000657603, Final residual = 2.91273e-05, No Iterations 10
time step continuity errors : sum local = 1.77846e-05, global = -1.78392e-06
DICPCG:  Solving for p_rgh, Initial residual = 0.000143057, Final residual = 7.89283e-08, No Iterations 49
time step continuity errors : sum local = 4.80794e-08, global = 4.15936e-09, cumulative = -2.61194e-07
smoothSolver:  Solving for epsilon, Initial residual = 0.0125128, Final residual = 6.033e-07, No Iterations 3
smoothSolver:  Solving for k, Initial residual = 0.0079708, Final residual = 6.32246e-07, No Iterations 3
ExecutionTime = 7.65571 s  ClockTime = 8 s

Courant Number mean: 0.184724 max: 0.974816
Interface Courant Number mean: 0.0364978 max: 0.644137
deltaT = 0.00186012
Time = 0.983259s

smoothSolver:  Solving for alpha.water, Initial residual = 0.00675836, Final residual = 3.99263e-09, No Iterations 3
Phase-1 volume fraction = 0.195166  Min(alpha.water) = -4.1923e-14  Max(alpha.water) = 1
MULES: Correcting alpha.water
MULES: Correcting alpha.water
Phase-1 volume fraction = 0.195166  Min(alpha.water) = -1.97991e-06  Max(alpha.water) = 1
DICPCG:  Solving for p_rgh, Initial residual = 0.0315165, Final residual = 0.000490745, No Iterations 2
time step continuity errors : sum local = 0.000304297, global = -3.12633e-05
DICPCG:  Solving for p_rgh, Initial residual = 0.000636856, Final residual = 2.89795e-05, No Iterations 8
time step continuity errors : sum local = 1.77722e-05, global = -1.11486e-06
DICPCG:  Solving for p_rgh, Initial residual = 0.000143598, Final residual = 9.38791e-08, No Iterations 50
time step continuity errors : sum local = 5.75129e-08, global = 4.56399e-10, cumulative = -2.60737e-07
smoothSolver:  Solving for epsilon, Initial residual = 0.0124795, Final residual = 5.90292e-07, No Iterations 3
smoothSolver:  Solving for k, Initial residual = 0.00791574, Final residual = 5.99542e-07, No Iterations 3
ExecutionTime = 7.66867 s  ClockTime = 8 s

Courant Number mean: 0.183672 max: 0.977429
Interface Courant Number mean: 0.0361122 max: 0.649786
deltaT = 0.00186012
Time = 0.985119s

smoothSolver:  Solving for alpha.water, Initial residual = 0.00672905, Final residual = 3.79231e-09, No Iterations 3
Phase-1 volume fraction = 0.195164  Min(alpha.water) = -3.55376e-14  Max(alpha.water) = 1
MULES: Correcting alpha.water
MULES: Correcting alpha.water
Phase-1 volume fraction = 0.195164  Min(alpha.water) = -1.87198e-06  Max(alpha.water) = 1
DICPCG:  Solving for p_rgh, Initial residual = 0.0326492, Final residual = 0.00050904, No Iterations 2
time step continuity errors : sum local = 0.00030896, global = -3.16225e-05
DICPCG:  Solving for p_rgh, Initial residual = 0.000659502, Final residual = 3.01537e-05, No Iterations 7
time step continuity errors : sum local = 1.80954e-05, global = 1.51263e-06
DICPCG:  Solving for p_rgh, Initial residual = 0.000156511, Final residual = 8.65211e-08, No Iterations 52
time step continuity errors : sum local = 5.18684e-08, global = 2.55452e-09, cumulative = -2.58183e-07
smoothSolver:  Solving for epsilon, Initial residual = 0.0126612, Final residual = 5.56932e-07, No Iterations 3
smoothSolver:  Solving for k, Initial residual = 0.00783425, Final residual = 5.7424e-07, No Iterations 3
ExecutionTime = 7.68034 s  ClockTime = 8 s

Courant Number mean: 0.182694 max: 0.979144
Interface Courant Number mean: 0.0357061 max: 0.648912
deltaT = 0.00186012
Time = 0.986979s

smoothSolver:  Solving for alpha.water, Initial residual = 0.00671162, Final residual = 3.62456e-09, No Iterations 3
Phase-1 volume fraction = 0.19516  Min(alpha.water) = -2.84797e-14  Max(alpha.water) = 1
MULES: Correcting alpha.water
MULES: Correcting alpha.water
Phase-1 volume fraction = 0.19516  Min(alpha.water) = -1.70771e-06  Max(alpha.water) = 1
DICPCG:  Solving for p_rgh, Initial residual = 0.0313163, Final residual = 0.000536015, No Iterations 2
time step continuity errors : sum local = 0.000321766, global = -2.96776e-05
DICPCG:  Solving for p_rgh, Initial residual = 0.000677601, Final residual = 2.47378e-05, No Iterations 11
time step continuity errors : sum local = 1.47133e-05, global = -2.25279e-06
DICPCG:  Solving for p_rgh, Initial residual = 0.000146655, Final residual = 8.54778e-08, No Iterations 48
time step continuity errors : sum local = 5.08128e-08, global = 1.1368e-09, cumulative = -2.57046e-07
smoothSolver:  Solving for epsilon, Initial residual = 0.0131646, Final residual = 5.13668e-07, No Iterations 3
smoothSolver:  Solving for k, Initial residual = 0.0078129, Final residual = 5.67511e-07, No Iterations 3
ExecutionTime = 7.69033 s  ClockTime = 8 s

Courant Number mean: 0.181653 max: 0.979805
Interface Courant Number mean: 0.0357421 max: 0.651317
deltaT = 0.00186012
Time = 0.988839s

smoothSolver:  Solving for alpha.water, Initial residual = 0.00668336, Final residual = 3.53199e-09, No Iterations 3
Phase-1 volume fraction = 0.195155  Min(alpha.water) = -2.07318e-14  Max(alpha.water) = 1
MULES: Correcting alpha.water
MULES: Correcting alpha.water
Phase-1 volume fraction = 0.195155  Min(alpha.water) = -1.50424e-06  Max(alpha.water) = 1
DICPCG:  Solving for p_rgh, Initial residual = 0.0349116, Final residual = 0.000505484, No Iterations 2
time step continuity errors : sum local = 0.000311079, global = -2.11655e-05
DICPCG:  Solving for p_rgh, Initial residual = 0.000643012, Final residual = 2.43231e-05, No Iterations 7
time step continuity errors : sum local = 1.47996e-05, global = -2.62983e-06
DICPCG:  Solving for p_rgh, Initial residual = 0.000142466, Final residual = 9.79982e-08, No Iterations 51
time step continuity errors : sum local = 5.96056e-08, global = 2.24828e-09, cumulative = -2.54798e-07
smoothSolver:  Solving for epsilon, Initial residual = 0.0138588, Final residual = 5.17358e-07, No Iterations 3
smoothSolver:  Solving for k, Initial residual = 0.00775408, Final residual = 5.68401e-07, No Iterations 3
ExecutionTime = 7.70333 s  ClockTime = 8 s

Courant Number mean: 0.18049 max: 0.981101
Interface Courant Number mean: 0.034943 max: 0.655889
deltaT = 0.00186012
Time = 0.990699s

smoothSolver:  Solving for alpha.water, Initial residual = 0.00664117, Final residual = 3.41881e-09, No Iterations 3
Phase-1 volume fraction = 0.195147  Min(alpha.water) = -1.23264e-14  Max(alpha.water) = 1
MULES: Correcting alpha.water
MULES: Correcting alpha.water
Phase-1 volume fraction = 0.195147  Min(alpha.water) = -1.28429e-06  Max(alpha.water) = 1
DICPCG:  Solving for p_rgh, Initial residual = 0.033478, Final residual = 0.000511861, No Iterations 2
time step continuity errors : sum local = 0.000311526, global = -1.42333e-05
DICPCG:  Solving for p_rgh, Initial residual = 0.000651551, Final residual = 2.5636e-05, No Iterations 7
time step continuity errors : sum local = 1.54278e-05, global = 1.13652e-06
DICPCG:  Solving for p_rgh, Initial residual = 0.000142385, Final residual = 9.23874e-08, No Iterations 51
time step continuity errors : sum local = 5.55279e-08, global = 2.00208e-09, cumulative = -2.52796e-07
smoothSolver:  Solving for epsilon, Initial residual = 0.0145966, Final residual = 5.10628e-07, No Iterations 3
smoothSolver:  Solving for k, Initial residual = 0.00782105, Final residual = 5.77895e-07, No Iterations 3
ExecutionTime = 7.71465 s  ClockTime = 8 s

Courant Number mean: 0.179336 max: 0.984007
Interface Courant Number mean: 0.0352478 max: 0.655027
deltaT = 0.00186012
Time = 0.99256s

smoothSolver:  Solving for alpha.water, Initial residual = 0.0066172, Final residual = 3.3012e-09, No Iterations 3
Phase-1 volume fraction = 0.195136  Min(alpha.water) = -3.32052e-15  Max(alpha.water) = 1
MULES: Correcting alpha.water
MULES: Correcting alpha.water
Phase-1 volume fraction = 0.195137  Min(alpha.water) = -1.15437e-06  Max(alpha.water) = 1
DICPCG:  Solving for p_rgh, Initial residual = 0.0344123, Final residual = 0.000493063, No Iterations 2
time step continuity errors : sum local = 0.000303996, global = -1.24e-05
DICPCG:  Solving for p_rgh, Initial residual = 0.000622571, Final residual = 2.52174e-05, No Iterations 7
time step continuity errors : sum local = 1.53593e-05, global = -4.60015e-06
DICPCG:  Solving for p_rgh, Initial residual = 0.000131826, Final residual = 8.44194e-08, No Iterations 51
time step continuity errors : sum local = 5.13755e-08, global = 3.7118e-09, cumulative = -2.49084e-07
smoothSolver:  Solving for epsilon, Initial residual = 0.0135568, Final residual = 4.93264e-07, No Iterations 3
smoothSolver:  Solving for k, Initial residual = 0.00790604, Final residual = 5.79643e-07, No Iterations 3
ExecutionTime = 7.72384 s  ClockTime = 8 s

Courant Number mean: 0.178072 max: 0.988151
Interface Courant Number mean: 0.035356 max: 0.656112
deltaT = 0.00186012
Time = 0.99442s

smoothSolver:  Solving for alpha.water, Initial residual = 0.00655658, Final residual = 3.15705e-09, No Iterations 3
Phase-1 volume fraction = 0.195121  Min(alpha.water) = -9.05508e-16  Max(alpha.water) = 1
MULES: Correcting alpha.water
MULES: Correcting alpha.water
Phase-1 volume fraction = 0.195122  Min(alpha.water) = -1.06164e-06  Max(alpha.water) = 1
DICPCG:  Solving for p_rgh, Initial residual = 0.0368416, Final residual = 0.000455807, No Iterations 2
time step continuity errors : sum local = 0.000288404, global = -1.21979e-06
DICPCG:  Solving for p_rgh, Initial residual = 0.000591127, Final residual = 2.46424e-05, No Iterations 7
time step continuity errors : sum local = 1.53883e-05, global = -1.57197e-07
DICPCG:  Solving for p_rgh, Initial residual = 0.000123295, Final residual = 8.98166e-08, No Iterations 45
time step continuity errors : sum local = 5.60591e-08, global = 6.90748e-11, cumulative = -2.49015e-07
smoothSolver:  Solving for epsilon, Initial residual = 0.0131105, Final residual = 4.58459e-07, No Iterations 3
smoothSolver:  Solving for k, Initial residual = 0.00806972, Final residual = 5.81035e-07, No Iterations 3
ExecutionTime = 7.7379 s  ClockTime = 8 s

Courant Number mean: 0.176802 max: 0.991707
Interface Courant Number mean: 0.0352309 max: 0.660096
deltaT = 0.00186012
Time = 0.99628s

smoothSolver:  Solving for alpha.water, Initial residual = 0.00650152, Final residual = 2.99903e-09, No Iterations 3
Phase-1 volume fraction = 0.1951  Min(alpha.water) = -8.87772e-16  Max(alpha.water) = 1
MULES: Correcting alpha.water
MULES: Correcting alpha.water
Phase-1 volume fraction = 0.195102  Min(alpha.water) = -9.59682e-07  Max(alpha.water) = 1
DICPCG:  Solving for p_rgh, Initial residual = 0.0348536, Final residual = 0.000429886, No Iterations 2
time step continuity errors : sum local = 0.000269525, global = -1.36973e-06
DICPCG:  Solving for p_rgh, Initial residual = 0.000563131, Final residual = 2.68521e-05, No Iterations 7
time step continuity errors : sum local = 1.66355e-05, global = -2.66259e-06
DICPCG:  Solving for p_rgh, Initial residual = 0.000121826, Final residual = 7.86359e-08, No Iterations 51
time step continuity errors : sum local = 4.86644e-08, global = 3.36227e-09, cumulative = -2.45653e-07
smoothSolver:  Solving for epsilon, Initial residual = 0.01207, Final residual = 3.86722e-07, No Iterations 3
smoothSolver:  Solving for k, Initial residual = 0.00814889, Final residual = 5.69934e-07, No Iterations 3
ExecutionTime = 7.75094 s  ClockTime = 8 s

Courant Number mean: 0.175534 max: 0.994692
Interface Courant Number mean: 0.0349009 max: 0.660739
deltaT = 0.00186012
Time = 0.99814s

smoothSolver:  Solving for alpha.water, Initial residual = 0.00649225, Final residual = 2.83548e-09, No Iterations 3
Phase-1 volume fraction = 0.195071  Min(alpha.water) = -8.73523e-16  Max(alpha.water) = 1
MULES: Correcting alpha.water
MULES: Correcting alpha.water
Phase-1 volume fraction = 0.195074  Min(alpha.water) = -1.72266e-06  Max(alpha.water) = 1
DICPCG:  Solving for p_rgh, Initial residual = 0.0363609, Final residual = 0.00173197, No Iterations 1
time step continuity errors : sum local = 0.00110992, global = -9.59373e-06
DICPCG:  Solving for p_rgh, Initial residual = 0.00187914, Final residual = 9.27505e-05, No Iterations 5
time step continuity errors : sum local = 5.86756e-05, global = -4.27685e-06
DICPCG:  Solving for p_rgh, Initial residual = 0.000275532, Final residual = 9.54388e-08, No Iterations 48
time step continuity errors : sum local = 6.03117e-08, global = -3.68848e-10, cumulative = -2.46021e-07
smoothSolver:  Solving for epsilon, Initial residual = 0.0115746, Final residual = 3.34283e-07, No Iterations 3
smoothSolver:  Solving for k, Initial residual = 0.00822316, Final residual = 5.54514e-07, No Iterations 3
ExecutionTime = 7.76184 s  ClockTime = 8 s

Courant Number mean: 0.17414 max: 0.996971
Interface Courant Number mean: 0.0347338 max: 0.662691
deltaT = 0.00186012
Time = 1s

smoothSolver:  Solving for alpha.water, Initial residual = 0.00644262, Final residual = 2.70484e-09, No Iterations 3
Phase-1 volume fraction = 0.195032  Min(alpha.water) = -8.55537e-16  Max(alpha.water) = 1
MULES: Correcting alpha.water
MULES: Correcting alpha.water
Phase-1 volume fraction = 0.195034  Min(alpha.water) = -2.30683e-06  Max(alpha.water) = 1
DICPCG:  Solving for p_rgh, Initial residual = 0.0364899, Final residual = 0.00168895, No Iterations 1
time step continuity errors : sum local = 0.00109472, global = 1.28723e-06
DICPCG:  Solving for p_rgh, Initial residual = 0.00184004, Final residual = 6.04205e-05, No Iterations 6
time step continuity errors : sum local = 3.87712e-05, global = -3.8182e-06
DICPCG:  Solving for p_rgh, Initial residual = 0.000255716, Final residual = 9.57689e-08, No Iterations 47
time step continuity errors : sum local = 6.14317e-08, global = 3.86011e-09, cumulative = -2.42161e-07
smoothSolver:  Solving for epsilon, Initial residual = 0.0126483, Final residual = 2.94761e-07, No Iterations 3
smoothSolver:  Solving for k, Initial residual = 0.00824354, Final residual = 5.33665e-07, No Iterations 3
ExecutionTime = 7.78489 s  ClockTime = 8 s

End

